
OS:Version,
  {aabf57a7-c86f-46ab-8390-0bdec71cf5bf}, !- Handle
  3.7.0;                                  !- Version Identifier

OS:Site,
  {95df6747-0b86-46a7-b845-2933e36325eb}, !- Handle
  DEBRECEN,                               !- Name
  47.48,                                  !- Latitude {deg}
  21.63,                                  !- Longitude {deg}
  1,                                      !- Time Zone {hr}
  112,                                    !- Elevation {m}
  Suburbs;                                !- Terrain

OS:SimulationControl,
  {cc0091fe-2f81-4e2e-a99a-4630a6399a10}, !- Handle
  Yes,                                    !- Do Zone Sizing Calculation
  Yes,                                    !- Do System Sizing Calculation
  No,                                     !- Do Plant Sizing Calculation
  No,                                     !- Run Simulation for Sizing Periods
  Yes,                                    !- Run Simulation for Weather File Run Periods
  0.04,                                   !- Loads Convergence Tolerance Value {W}
  0.4,                                    !- Temperature Convergence Tolerance Value {deltaC}
  FullExterior,                           !- Solar Distribution
  25,                                     !- Maximum Number of Warmup Days
  6,                                      !- Minimum Number of Warmup Days
  No;                                     !- Do HVAC Sizing Simulation for Sizing Periods

OS:RunPeriod,
  {bd6ee74f-bb38-4c2d-b30b-8d941779d171}, !- Handle
  Detached house (01-01:31-12),           !- Name
  1,                                      !- Begin Month
  1,                                      !- Begin Day of Month
  12,                                     !- End Month
  31,                                     !- End Day of Month
  No,                                     !- Use Weather File Holidays and Special Days
  No,                                     !- Use Weather File Daylight Saving Period
  Yes,                                    !- Apply Weekend Holiday Rule
  Yes,                                    !- Use Weather File Rain Indicators
  Yes,                                    !- Use Weather File Snow Indicators
  ;                                       !- Number of Times Runperiod to be Repeated

OS:YearDescription,
  {7feb4a10-4433-4475-b845-808cc7a64a42}, !- Handle
  ,                                       !- Calendar Year
  Sunday,                                 !- Day of Week for Start Day
  ;                                       !- Is Leap Year

OS:RunPeriodControl:DaylightSavingTime,
  {65d384eb-2eca-4aaa-b05e-ca1c8ad21b1a}, !- Handle
  Last Sunday in March,                   !- Start Date
  Last Sunday in October;                 !- End Date

OS:Output:Variable,
  {89c9dcf5-1005-483b-925b-4d4c492c7a93}, !- Handle
  Output Variable 1,                      !- Name
  *,                                      !- Key Value
  Zone Ideal Loads Supply Air Sensible Cooling Rate, !- Variable Name
  daily;                                  !- Reporting Frequency

OS:Timestep,
  {7daf0b52-cf50-4384-acc5-3834d8904b23}, !- Handle
  2;                                      !- Number of Timesteps per Hour

OS:ConvergenceLimits,
  {ddf500b2-23f7-4cb7-87de-03741a61c83d}, !- Handle
  1,                                      !- Minimum System Timestep {minutes}
  25;                                     !- Maximum HVAC Iterations

OS:ScheduleTypeLimits,
  {0dda238f-e8ba-4295-aec4-e8f1a68e6054}, !- Handle
  Schedule Type Limits 1;                 !- Name

OS:ScheduleTypeLimits,
  {9b1fcf2e-ec44-4144-b211-50a63afe1cb5}, !- Handle
  Fraction,                               !- Name
  0,                                      !- Lower Limit Value
  1,                                      !- Upper Limit Value
  CONTINUOUS;                             !- Numeric Type

OS:ScheduleTypeLimits,
  {f1f243b1-54d7-4177-bbfb-4175b3c06c7d}, !- Handle
  Temperature,                            !- Name
  -60,                                    !- Lower Limit Value
  200,                                    !- Upper Limit Value
  CONTINUOUS,                             !- Numeric Type
  Temperature;                            !- Unit Type

OS:ScheduleTypeLimits,
  {2b9969bd-5b37-4f54-a79c-79a5ea61178b}, !- Handle
  Control Type,                           !- Name
  0,                                      !- Lower Limit Value
  4,                                      !- Upper Limit Value
  DISCRETE,                               !- Numeric Type
  ControlMode;                            !- Unit Type

OS:ScheduleTypeLimits,
  {be174d02-8c3a-4c3f-a9fb-1a4484b81ade}, !- Handle
  On/Off,                                 !- Name
  0,                                      !- Lower Limit Value
  1,                                      !- Upper Limit Value
  DISCRETE,                               !- Numeric Type
  Availability;                           !- Unit Type

OS:Schedule:Compact,
  {4bf29014-fc22-4f35-a2b7-1c97effbabba}, !- Handle
  On,                                     !- Name
  {9e54d3da-222f-4bd9-9391-daaafded9f73}, !- Schedule Type Limits Name
  Through: 12/31,                         !- Field 1
  For: AllDays,                           !- Field 2
  Until: 24:00,                           !- Field 3
  1;                                      !- Field 4

OS:ScheduleTypeLimits,
  {918ee510-fea0-40a4-b911-d34eb8eee15b}, !- Handle
  Schedule Type Limits 2;                 !- Name

OS:Schedule:Compact,
  {3d8e1d9b-3ed4-4a66-9aa1-6b406655476a}, !- Handle
  Off,                                    !- Name
  ,                                       !- Schedule Type Limits Name
  Through: 12/31,                         !- Field 1
  For: AllDays,                           !- Field 2
  Until: 24:00,                           !- Field 3
  0;                                      !- Field 4

OS:ScheduleTypeLimits,
  {436a471a-925c-43ee-8c69-855e3d6089fc}, !- Handle
  Schedule Type Limits 3;                 !- Name

OS:Schedule:Compact,
  {a5caf8cc-5e5e-4138-a40f-533f44c36866}, !- Handle
  Work efficiency,                        !- Name
  {8624444e-c0e7-4386-8c41-65605f9f8244}, !- Schedule Type Limits Name
  Through: 12/31,                         !- Field 1
  For: AllDays,                           !- Field 2
  Until: 24:00,                           !- Field 3
  0;                                      !- Field 4

OS:ScheduleTypeLimits,
  {c6750bf8-2f29-435c-8790-0bc896807dde}, !- Handle
  Schedule Type Limits 4;                 !- Name

OS:Schedule:Compact,
  {d6d719af-0706-4e45-ae66-dd980d18d2d1}, !- Handle
  OpaqueShade,                            !- Name
  ,                                       !- Schedule Type Limits Name
  Through: 12/31,                         !- Field 1
  For: AllDays,                           !- Field 2
  Until: 24:00,                           !- Field 3
  0;                                      !- Field 4

OS:ScheduleTypeLimits,
  {d322dd17-83ce-4e3d-baaf-088f9e22dbf1}, !- Handle
  Schedule Type Limits 5;                 !- Name

OS:Schedule:Compact,
  {055cc85d-22de-46f2-bcf4-f69bceb50223}, !- Handle
  Zone Comfort Control Type Sched,        !- Name
  {2b9969bd-5b37-4f54-a79c-79a5ea61178b}, !- Schedule Type Limits Name
  Through: 12/31,                         !- Field 1
  For: AllDays,                           !- Field 2
  Until: 24:00,                           !- Field 3
  4;                                      !- Field 4

OS:Schedule:Compact,
  {aab1f18d-defa-4376-9b2c-a98103c30a7b}, !- Handle
  Design Days Only,                       !- Name
  ,                                       !- Schedule Type Limits Name
  Through: 12/31,                         !- Field 1
  For: SummerDesignDay WinterDesignDay,   !- Field 2
  Until: 24:00,                           !- Field 3
  1,                                      !- Field 4
  For: AllOtherDays,                      !- Field 5
  Until: 24:00,                           !- Field 6
  0;                                      !- Field 7

OS:ScheduleTypeLimits,
  {d01ab4c3-8175-475b-80ab-9222075bfb1a}, !- Handle
  Schedule Type Limits 6;                 !- Name

OS:Schedule:Day,
  {0002e8f5-311d-4b73-b39f-4ac1dab7628c}, !- Handle
  0,                                      !- Name
  ,                                       !- Schedule Type Limits Name
  ,                                       !- Interpolate to Timestep
  1,                                      !- Hour 1
  0,                                      !- Minute 1
  0,                                      !- Value Until Time 1
  2,                                      !- Hour 2
  0,                                      !- Minute 2
  0,                                      !- Value Until Time 2
  3,                                      !- Hour 3
  0,                                      !- Minute 3
  0,                                      !- Value Until Time 3
  4,                                      !- Hour 4
  0,                                      !- Minute 4
  0,                                      !- Value Until Time 4
  5,                                      !- Hour 5
  0,                                      !- Minute 5
  0,                                      !- Value Until Time 5
  6,                                      !- Hour 6
  0,                                      !- Minute 6
  0,                                      !- Value Until Time 6
  7,                                      !- Hour 7
  0,                                      !- Minute 7
  0,                                      !- Value Until Time 7
  8,                                      !- Hour 8
  0,                                      !- Minute 8
  0,                                      !- Value Until Time 8
  9,                                      !- Hour 9
  0,                                      !- Minute 9
  0,                                      !- Value Until Time 9
  10,                                     !- Hour 10
  0,                                      !- Minute 10
  0,                                      !- Value Until Time 10
  11,                                     !- Hour 11
  0,                                      !- Minute 11
  0,                                      !- Value Until Time 11
  12,                                     !- Hour 12
  0,                                      !- Minute 12
  0,                                      !- Value Until Time 12
  13,                                     !- Hour 13
  0,                                      !- Minute 13
  0,                                      !- Value Until Time 13
  14,                                     !- Hour 14
  0,                                      !- Minute 14
  0,                                      !- Value Until Time 14
  15,                                     !- Hour 15
  0,                                      !- Minute 15
  0,                                      !- Value Until Time 15
  16,                                     !- Hour 16
  0,                                      !- Minute 16
  0,                                      !- Value Until Time 16
  17,                                     !- Hour 17
  0,                                      !- Minute 17
  0,                                      !- Value Until Time 17
  18,                                     !- Hour 18
  0,                                      !- Minute 18
  0,                                      !- Value Until Time 18
  19,                                     !- Hour 19
  0,                                      !- Minute 19
  0,                                      !- Value Until Time 19
  20,                                     !- Hour 20
  0,                                      !- Minute 20
  0,                                      !- Value Until Time 20
  21,                                     !- Hour 21
  0,                                      !- Minute 21
  0,                                      !- Value Until Time 21
  22,                                     !- Hour 22
  0,                                      !- Minute 22
  0,                                      !- Value Until Time 22
  23,                                     !- Hour 23
  0,                                      !- Minute 23
  0,                                      !- Value Until Time 23
  24,                                     !- Hour 24
  0,                                      !- Minute 24
  0;                                      !- Value Until Time 24

OS:ScheduleTypeLimits,
  {99a6d565-1ce7-4c26-80c6-92fe5992e53b}, !- Handle
  Schedule Type Limits 7;                 !- Name

OS:Schedule:Day,
  {56821792-4315-4ce5-aa62-b726aac07bd6}, !- Handle
  50,                                     !- Name
  ,                                       !- Schedule Type Limits Name
  ,                                       !- Interpolate to Timestep
  1,                                      !- Hour 1
  0,                                      !- Minute 1
  50,                                     !- Value Until Time 1
  2,                                      !- Hour 2
  0,                                      !- Minute 2
  50,                                     !- Value Until Time 2
  3,                                      !- Hour 3
  0,                                      !- Minute 3
  50,                                     !- Value Until Time 3
  4,                                      !- Hour 4
  0,                                      !- Minute 4
  50,                                     !- Value Until Time 4
  5,                                      !- Hour 5
  0,                                      !- Minute 5
  50,                                     !- Value Until Time 5
  6,                                      !- Hour 6
  0,                                      !- Minute 6
  50,                                     !- Value Until Time 6
  7,                                      !- Hour 7
  0,                                      !- Minute 7
  50,                                     !- Value Until Time 7
  8,                                      !- Hour 8
  0,                                      !- Minute 8
  50,                                     !- Value Until Time 8
  9,                                      !- Hour 9
  0,                                      !- Minute 9
  50,                                     !- Value Until Time 9
  10,                                     !- Hour 10
  0,                                      !- Minute 10
  50,                                     !- Value Until Time 10
  11,                                     !- Hour 11
  0,                                      !- Minute 11
  50,                                     !- Value Until Time 11
  12,                                     !- Hour 12
  0,                                      !- Minute 12
  50,                                     !- Value Until Time 12
  13,                                     !- Hour 13
  0,                                      !- Minute 13
  50,                                     !- Value Until Time 13
  14,                                     !- Hour 14
  0,                                      !- Minute 14
  50,                                     !- Value Until Time 14
  15,                                     !- Hour 15
  0,                                      !- Minute 15
  50,                                     !- Value Until Time 15
  16,                                     !- Hour 16
  0,                                      !- Minute 16
  50,                                     !- Value Until Time 16
  17,                                     !- Hour 17
  0,                                      !- Minute 17
  50,                                     !- Value Until Time 17
  18,                                     !- Hour 18
  0,                                      !- Minute 18
  50,                                     !- Value Until Time 18
  19,                                     !- Hour 19
  0,                                      !- Minute 19
  50,                                     !- Value Until Time 19
  20,                                     !- Hour 20
  0,                                      !- Minute 20
  50,                                     !- Value Until Time 20
  21,                                     !- Hour 21
  0,                                      !- Minute 21
  50,                                     !- Value Until Time 21
  22,                                     !- Hour 22
  0,                                      !- Minute 22
  50,                                     !- Value Until Time 22
  23,                                     !- Hour 23
  0,                                      !- Minute 23
  50,                                     !- Value Until Time 23
  24,                                     !- Hour 24
  0,                                      !- Minute 24
  50;                                     !- Value Until Time 24

OS:ScheduleTypeLimits,
  {db68a132-f42f-4829-ad50-76b592e10d1c}, !- Handle
  Schedule Type Limits 8;                 !- Name

OS:Schedule:Day,
  {14abafc5-9406-47ed-9b05-e8df9f5e219b}, !- Handle
  Off,                                    !- Name
  {9b1fcf2e-ec44-4144-b211-50a63afe1cb5}, !- Schedule Type Limits Name
  ,                                       !- Interpolate to Timestep
  1,                                      !- Hour 1
  0,                                      !- Minute 1
  0,                                      !- Value Until Time 1
  2,                                      !- Hour 2
  0,                                      !- Minute 2
  0,                                      !- Value Until Time 2
  3,                                      !- Hour 3
  0,                                      !- Minute 3
  0,                                      !- Value Until Time 3
  4,                                      !- Hour 4
  0,                                      !- Minute 4
  0,                                      !- Value Until Time 4
  5,                                      !- Hour 5
  0,                                      !- Minute 5
  0,                                      !- Value Until Time 5
  6,                                      !- Hour 6
  0,                                      !- Minute 6
  0,                                      !- Value Until Time 6
  7,                                      !- Hour 7
  0,                                      !- Minute 7
  0,                                      !- Value Until Time 7
  8,                                      !- Hour 8
  0,                                      !- Minute 8
  0,                                      !- Value Until Time 8
  9,                                      !- Hour 9
  0,                                      !- Minute 9
  0,                                      !- Value Until Time 9
  10,                                     !- Hour 10
  0,                                      !- Minute 10
  0,                                      !- Value Until Time 10
  11,                                     !- Hour 11
  0,                                      !- Minute 11
  0,                                      !- Value Until Time 11
  12,                                     !- Hour 12
  0,                                      !- Minute 12
  0,                                      !- Value Until Time 12
  13,                                     !- Hour 13
  0,                                      !- Minute 13
  0,                                      !- Value Until Time 13
  14,                                     !- Hour 14
  0,                                      !- Minute 14
  0,                                      !- Value Until Time 14
  15,                                     !- Hour 15
  0,                                      !- Minute 15
  0,                                      !- Value Until Time 15
  16,                                     !- Hour 16
  0,                                      !- Minute 16
  0,                                      !- Value Until Time 16
  17,                                     !- Hour 17
  0,                                      !- Minute 17
  0,                                      !- Value Until Time 17
  18,                                     !- Hour 18
  0,                                      !- Minute 18
  0,                                      !- Value Until Time 18
  19,                                     !- Hour 19
  0,                                      !- Minute 19
  0,                                      !- Value Until Time 19
  20,                                     !- Hour 20
  0,                                      !- Minute 20
  0,                                      !- Value Until Time 20
  21,                                     !- Hour 21
  0,                                      !- Minute 21
  0,                                      !- Value Until Time 21
  22,                                     !- Hour 22
  0,                                      !- Minute 22
  0,                                      !- Value Until Time 22
  23,                                     !- Hour 23
  0,                                      !- Minute 23
  0,                                      !- Value Until Time 23
  24,                                     !- Hour 24
  0,                                      !- Minute 24
  0;                                      !- Value Until Time 24

OS:Schedule:Week,
  {7b3bfa0d-001a-4629-8304-d04600eac7c1}, !- Handle
  Off,                                    !- Name
  ,                                       !- Schedule Rendering Name
  {14abafc5-9406-47ed-9b05-e8df9f5e219b}, !- Sunday Schedule:Day Name
  {14abafc5-9406-47ed-9b05-e8df9f5e219b}, !- Monday Schedule:Day Name
  {14abafc5-9406-47ed-9b05-e8df9f5e219b}, !- Tuesday Schedule:Day Name
  {14abafc5-9406-47ed-9b05-e8df9f5e219b}, !- Wednesday Schedule:Day Name
  {14abafc5-9406-47ed-9b05-e8df9f5e219b}, !- Thursday Schedule:Day Name
  {14abafc5-9406-47ed-9b05-e8df9f5e219b}, !- Friday Schedule:Day Name
  {14abafc5-9406-47ed-9b05-e8df9f5e219b}, !- Saturday Schedule:Day Name
  {14abafc5-9406-47ed-9b05-e8df9f5e219b}, !- Holiday Schedule:Day Name
  {14abafc5-9406-47ed-9b05-e8df9f5e219b}, !- SummerDesignDay Schedule:Day Name
  {14abafc5-9406-47ed-9b05-e8df9f5e219b}, !- WinterDesignDay Schedule:Day Name
  {14abafc5-9406-47ed-9b05-e8df9f5e219b}, !- CustomDay1 Schedule:Day Name
  {14abafc5-9406-47ed-9b05-e8df9f5e219b}; !- CustomDay2 Schedule:Day Name

OS:Schedule:Day,
  {d093a29e-45d0-46fe-8e2d-ece18d6da26e}, !- Handle
  Summer Control Type Day Sch,            !- Name
  {2b9969bd-5b37-4f54-a79c-79a5ea61178b}, !- Schedule Type Limits Name
  ,                                       !- Interpolate to Timestep
  1,                                      !- Hour 1
  0,                                      !- Minute 1
  4,                                      !- Value Until Time 1
  2,                                      !- Hour 2
  0,                                      !- Minute 2
  4,                                      !- Value Until Time 2
  3,                                      !- Hour 3
  0,                                      !- Minute 3
  4,                                      !- Value Until Time 3
  4,                                      !- Hour 4
  0,                                      !- Minute 4
  4,                                      !- Value Until Time 4
  5,                                      !- Hour 5
  0,                                      !- Minute 5
  4,                                      !- Value Until Time 5
  6,                                      !- Hour 6
  0,                                      !- Minute 6
  4,                                      !- Value Until Time 6
  7,                                      !- Hour 7
  0,                                      !- Minute 7
  4,                                      !- Value Until Time 7
  8,                                      !- Hour 8
  0,                                      !- Minute 8
  4,                                      !- Value Until Time 8
  9,                                      !- Hour 9
  0,                                      !- Minute 9
  4,                                      !- Value Until Time 9
  10,                                     !- Hour 10
  0,                                      !- Minute 10
  4,                                      !- Value Until Time 10
  11,                                     !- Hour 11
  0,                                      !- Minute 11
  4,                                      !- Value Until Time 11
  12,                                     !- Hour 12
  0,                                      !- Minute 12
  4,                                      !- Value Until Time 12
  13,                                     !- Hour 13
  0,                                      !- Minute 13
  4,                                      !- Value Until Time 13
  14,                                     !- Hour 14
  0,                                      !- Minute 14
  4,                                      !- Value Until Time 14
  15,                                     !- Hour 15
  0,                                      !- Minute 15
  4,                                      !- Value Until Time 15
  16,                                     !- Hour 16
  0,                                      !- Minute 16
  4,                                      !- Value Until Time 16
  17,                                     !- Hour 17
  0,                                      !- Minute 17
  4,                                      !- Value Until Time 17
  18,                                     !- Hour 18
  0,                                      !- Minute 18
  4,                                      !- Value Until Time 18
  19,                                     !- Hour 19
  0,                                      !- Minute 19
  4,                                      !- Value Until Time 19
  20,                                     !- Hour 20
  0,                                      !- Minute 20
  4,                                      !- Value Until Time 20
  21,                                     !- Hour 21
  0,                                      !- Minute 21
  4,                                      !- Value Until Time 21
  22,                                     !- Hour 22
  0,                                      !- Minute 22
  4,                                      !- Value Until Time 22
  23,                                     !- Hour 23
  0,                                      !- Minute 23
  4,                                      !- Value Until Time 23
  24,                                     !- Hour 24
  0,                                      !- Minute 24
  4;                                      !- Value Until Time 24

OS:Schedule:Day,
  {88bf27fb-8adb-4692-bb9e-454322c69949}, !- Handle
  Winter Control Type Day Sch,            !- Name
  {2b9969bd-5b37-4f54-a79c-79a5ea61178b}, !- Schedule Type Limits Name
  ,                                       !- Interpolate to Timestep
  1,                                      !- Hour 1
  0,                                      !- Minute 1
  4,                                      !- Value Until Time 1
  2,                                      !- Hour 2
  0,                                      !- Minute 2
  4,                                      !- Value Until Time 2
  3,                                      !- Hour 3
  0,                                      !- Minute 3
  4,                                      !- Value Until Time 3
  4,                                      !- Hour 4
  0,                                      !- Minute 4
  4,                                      !- Value Until Time 4
  5,                                      !- Hour 5
  0,                                      !- Minute 5
  4,                                      !- Value Until Time 5
  6,                                      !- Hour 6
  0,                                      !- Minute 6
  4,                                      !- Value Until Time 6
  7,                                      !- Hour 7
  0,                                      !- Minute 7
  4,                                      !- Value Until Time 7
  8,                                      !- Hour 8
  0,                                      !- Minute 8
  4,                                      !- Value Until Time 8
  9,                                      !- Hour 9
  0,                                      !- Minute 9
  4,                                      !- Value Until Time 9
  10,                                     !- Hour 10
  0,                                      !- Minute 10
  4,                                      !- Value Until Time 10
  11,                                     !- Hour 11
  0,                                      !- Minute 11
  4,                                      !- Value Until Time 11
  12,                                     !- Hour 12
  0,                                      !- Minute 12
  4,                                      !- Value Until Time 12
  13,                                     !- Hour 13
  0,                                      !- Minute 13
  4,                                      !- Value Until Time 13
  14,                                     !- Hour 14
  0,                                      !- Minute 14
  4,                                      !- Value Until Time 14
  15,                                     !- Hour 15
  0,                                      !- Minute 15
  4,                                      !- Value Until Time 15
  16,                                     !- Hour 16