
!-   ===========  ALL OBJECTS IN CLASS: VERSION ===========

Version,
    23.2;                    !- Version Identifier


!-   ===========  ALL OBJECTS IN CLASS: SIMULATIONCONTROL ===========

SimulationControl,
    Yes,                     !- Do Zone Sizing Calculation
    Yes,                     !- Do System Sizing Calculation
    Yes,                     !- Do Plant Sizing Calculation
    No,                      !- Run Simulation for Sizing Periods
    Yes,                     !- Run Simulation for Weather File Run Periods
    No,                      !- Do HVAC Sizing Simulation for Sizing Periods
    ;                        !- Maximum Number of HVAC Sizing Simulation Passes


!-   ===========  ALL OBJECTS IN CLASS: BUILDING ===========

Building,
    SF,                      !- Name
    0,                       !- North Axis {deg}
    Suburbs,                 !- Terrain
    0.04,                    !- Loads Convergence Tolerance Value {W}
    0.4,                     !- Temperature Convergence Tolerance Value {deltaC}
    FullExterior,            !- Solar Distribution
    25,                      !- Maximum Number of Warmup Days
    6;                       !- Minimum Number of Warmup Days


!-   ===========  ALL OBJECTS IN CLASS: SHADOWCALCULATION ===========

ShadowCalculation,
    PolygonClipping,         !- Shading Calculation Method
    Periodic,                !- Shading Calculation Update Frequency Method
    20,                      !- Shading Calculation Update Frequency
    15000,                   !- Maximum Figures in Shadow Overlap Calculations
    SutherlandHodgman,       !- Polygon Clipping Algorithm
    512,                     !- Pixel Counting Resolution
    SimpleSkyDiffuseModeling,!- Sky Diffuse Modeling Algorithm
    No,                      !- Output External Shading Calculation Results
    No,                      !- Disable Self-Shading Within Shading Zone Groups
    No;                      !- Disable Self-Shading From Shading Zone Groups to Other Zones


!-   ===========  ALL OBJECTS IN CLASS: SURFACECONVECTIONALGORITHM:INSIDE ===========

SurfaceConvectionAlgorithm:Inside,
    TARP;                    !- Algorithm


!-   ===========  ALL OBJECTS IN CLASS: SURFACECONVECTIONALGORITHM:OUTSIDE ===========

SurfaceConvectionAlgorithm:Outside,
    DOE-2;                   !- Algorithm


!-   ===========  ALL OBJECTS IN CLASS: HEATBALANCEALGORITHM ===========

HeatBalanceAlgorithm,
    ConductionTransferFunction,  !- Algorithm
    2000,                    !- Surface Temperature Upper Limit {C}
    1e-08,                   !- Minimum Surface Convection Heat Transfer Coefficient Value {W/m2-K}
    1000;                    !- Maximum Surface Convection Heat Transfer Coefficient Value {W/m2-K}


!-   ===========  ALL OBJECTS IN CLASS: ZONEAIRHEATBALANCEALGORITHM ===========

ZoneAirHeatBalanceAlgorithm,
    ThirdOrderBackwardDifference,  !- Algorithm
    No,                      !- Do Space Heat Balance for Sizing
    No;                      !- Do Space Heat Balance for Simulation


!-   ===========  ALL OBJECTS IN CLASS: ZONEAIRCONTAMINANTBALANCE ===========

ZoneAirContaminantBalance,
    No;                      !- Carbon Dioxide Concentration


!-   ===========  ALL OBJECTS IN CLASS: ZONECAPACITANCEMULTIPLIER:RESEARCHSPECIAL ===========

ZoneCapacitanceMultiplier:ResearchSpecial,
    Zone Capacitance Multiplier Research Special,  !- Name
    ,                        !- Zone or ZoneList Name
    ,                        !- Temperature Capacity Multiplier
    ,                        !- Humidity Capacity Multiplier
    ,                        !- Carbon Dioxide Capacity Multiplier
    ;                        !- Generic Contaminant Capacity Multiplier


!-   ===========  ALL OBJECTS IN CLASS: TIMESTEP ===========

Timestep,
    4;                       !- Number of Timesteps per Hour


!-   ===========  ALL OBJECTS IN CLASS: CONVERGENCELIMITS ===========

ConvergenceLimits,
    1,                       !- Minimum System Timestep {minutes}
    25;                      !- Maximum HVAC Iterations


!-   ===========  ALL OBJECTS IN CLASS: SITE:LOCATION ===========

Site:Location,
    DEBRECEN,                !- Name
    47.48,                   !- Latitude {deg}
    21.63,                   !- Longitude {deg}
    1,                       !- Time Zone {hr}
    112;                     !- Elevation {m}


!-   ===========  ALL OBJECTS IN CLASS: SIZINGPERIOD:DESIGNDAY ===========

SizingPeriod:DesignDay,
    DEBRECEN Ann Clg .4% Condns DB=>MWB,  !- Name
    7,                       !- Month
    21,                      !- Day of Month
    SummerDesignDay,         !- Day Type
    31.7,                    !- Maximum Dry-Bulb Temperature {C}
    11.1,                    !- Daily Dry-Bulb Temperature Range {deltaC}
    DefaultMultipliers,      !- Dry-Bulb Temperature Range Modifier Type
    ,                        !- Dry-Bulb Temperature Range Modifier Day Schedule Name
    Wetbulb,                 !- Humidity Condition Type
    21.3,                    !- Wetbulb or DewPoint at Maximum Dry-Bulb {C}
    ,                        !- Humidity Condition Day Schedule Name
    ,                        !- Humidity Ratio at Maximum Dry-Bulb {kgWater/kgDryAir}
    ,                        !- Enthalpy at Maximum Dry-Bulb {J/kg}
    ,                        !- Daily Wet-Bulb Temperature Range {deltaC}
    99987,                   !- Barometric Pressure {Pa}
    2.8,                     !- Wind Speed {m/s}
    180,                     !- Wind Direction {deg}
    No,                      !- Rain Indicator
    No,                      !- Snow Indicator
    No,                      !- Daylight Saving Time Indicator
    ASHRAETau,               !- Solar Model Indicator
    ,                        !- Beam Solar Day Schedule Name
    ,                        !- Diffuse Solar Day Schedule Name
    0.502,                   !- ASHRAE Clear Sky Optical Depth for Beam Irradiance (taub) {dimensionless}
    1.851,                   !- ASHRAE Clear Sky Optical Depth for Diffuse Irradiance (taud) {dimensionless}
    ,                        !- Sky Clearness
    ,                        !- Maximum Number Warmup Days
    FullResetAtBeginEnvironment;  !- Begin Environment Reset Mode

SizingPeriod:DesignDay,
    DEBRECEN Ann Htg 99.6% Condns DB,  !- Name
    1,                       !- Month
    21,                      !- Day of Month
    WinterDesignDay,         !- Day Type
    -13.8,                   !- Maximum Dry-Bulb Temperature {C}
    0,                       !- Daily Dry-Bulb Temperature Range {deltaC}
    DefaultMultipliers,      !- Dry-Bulb Temperature Range Modifier Type
    ,                        !- Dry-Bulb Temperature Range Modifier Day Schedule Name
    Wetbulb,                 !- Humidity Condition Type
    -13.8,                   !- Wetbulb or DewPoint at Maximum Dry-Bulb {C}
    ,                        !- Humidity Condition Day Schedule Name
    ,                        !- Humidity Ratio at Maximum Dry-Bulb {kgWater/kgDryAir}
    ,                        !- Enthalpy at Maximum Dry-Bulb {J/kg}
    ,                        !- Daily Wet-Bulb Temperature Range {deltaC}
    99987,                   !- Barometric Pressure {Pa}
    1.9,                     !- Wind Speed {m/s}
    50,                      !- Wind Direction {deg}
    No,                      !- Rain Indicator
    No,                      !- Snow Indicator
    No,                      !- Daylight Saving Time Indicator
    ASHRAEClearSky,          !- Solar Model Indicator
    ,                        !- Beam Solar Day Schedule Name
    ,                        !- Diffuse Solar Day Schedule Name
    ,                        !- ASHRAE Clear Sky Optical Depth for Beam Irradiance (taub) {dimensionless}
    ,                        !- ASHRAE Clear Sky Optical Depth for Diffuse Irradiance (taud) {dimensionless}
    0,                       !- Sky Clearness
    ,                        !- Maximum Number Warmup Days
    FullResetAtBeginEnvironment;  !- Begin Environment Reset Mode


!-   ===========  ALL OBJECTS IN CLASS: RUNPERIOD ===========

RunPeriod,
    Detached house Annual,  !- Name
    1,                       !- Begin Month
    1,                       !- Begin Day of Month
    2006,                    !- Begin Year
    12,                      !- End Month
    31,                      !- End Day of Month
    2006,                    !- End Year
    Sunday,                  !- Day of Week for Start Day
    No,                      !- Use Weather File Holidays and Special Days
    No,                      !- Use Weather File Daylight Saving Period
    Yes,                     !- Apply Weekend Holiday Rule
    Yes,                     !- Use Weather File Rain Indicators
    Yes;                     !- Use Weather File Snow Indicators


!-   ===========  ALL OBJECTS IN CLASS: RUNPERIODCONTROL:SPECIALDAYS ===========

RunPeriodControl:SpecialDays,
    Boxing Day,              !- Name
    26 Dec,                  !- Start Date
    1,                       !- Duration {days}
    Holiday;                 !- Special Day Type

RunPeriodControl:SpecialDays,
    Christmas Day,           !- Name
    25 Dec,                  !- Start Date
    1,                       !- Duration {days}
    Holiday;                 !- Special Day Type

RunPeriodControl:SpecialDays,
    Easter Monday,           !- Name
    2nd Monday in April,     !- Start Date
    1,                       !- Duration {days}
    Holiday;                 !- Special Day Type

RunPeriodControl:SpecialDays,
    Easter Sunday,           !- Name
    1st Sunday in April,     !- Start Date
    1,                       !- Duration {days}
    Holiday;                 !- Special Day Type

RunPeriodControl:SpecialDays,
    New Years Day,           !- Name
    1 Jan,                   !- Start Date
    1,                       !- Duration {days}
    Holiday;                 !- Special Day Type


!-   ===========  ALL OBJECTS IN CLASS: RUNPERIODCONTROL:DAYLIGHTSAVINGTIME ===========

RunPeriodControl:DaylightSavingTime,
    Last Sunday in March,    !- Start Date
    Last Sunday in October;  !- End Date


!-   ===========  ALL OBJECTS IN CLASS: SCHEDULETYPELIMITS ===========

ScheduleTypeLimits,
    Fraction,                !- Name
    0,                       !- Lower Limit Value
    1,                       !- Upper Limit Value
    CONTINUOUS;              !- Numeric Type

ScheduleTypeLimits,
    ActivityLevel,           !- Name
    0,                       !- Lower Limit Value
    ,                        !- Upper Limit Value
    Continuous,              !- Numeric Type
    activitylevel;           !- Unit Type

ScheduleTypeLimits,
    Any Number;              !- Name

ScheduleTypeLimits,
    Velocity,                !- Name
    0,                       !- Lower Limit Value
    ,                        !- Upper Limit Value
    Continuous,              !- Numeric Type
    velocity;                !- Unit Type

ScheduleTypeLimits,
    Dimensionless,           !- Name
    ,                        !- Lower Limit Value
    ,                        !- Upper Limit Value
    Continuous;              !- Numeric Type

ScheduleTypeLimits,
    Living_Unit Thermostat Schedule Type Limits,  !- Name
    0,                       !- Lower Limit Value
    4,                       !- Upper Limit Value
    DISCRETE;                !- Numeric Type

ScheduleTypeLimits,
    Temperature,             !- Name
    -60,                     !- Lower Limit Value
    200,                     !- Upper Limit Value
    CONTINUOUS,              !- Numeric Type
    temperature;             !- Unit Type

ScheduleTypeLimits,
    OnOff,                   !- Name
    0,                       !- Lower Limit Value
    1,                       !- Upper Limit Value
    Discrete,                !- Numeric Type
    availability;            !- Unit Type

ScheduleTypeLimits,
    OnOff hvac_library,      !- Name
    0,                       !- Lower Limit Value
    1,                       !- Upper Limit Value
    Discrete,                !- Numeric Type
    availability;            !- Unit Type

!-   ===========  ALL OBJECTS IN CLASS: SCHEDULE:COMPACT ===========

Schedule:Compact,
    Hot_Water_Temperature,      !- Name
    Temperature,           !- Schedule Type Limits Name
    Through: 12/31,          !- Field 1
    For: AllDays,            !- Field 2
    Until: 24:00,            !- Field 3
    67;                     !- Field 4

Schedule:Compact,
    Water Heater Ambient Temperature,      !- Name
    Temperature,           !- Schedule Type Limits Name
    Through: 12/31,          !- Field 1
    For: AllDays,            !- Field 2
    Until: 24:00,            !- Field 3
    22;                     !- Field 4

Schedule:Compact,
    Water Heater Setpoint Temperature,      !- Name
    Temperature,           !- Schedule Type Limits Name
    Through: 12/31,          !- Field 1
    For: AllDays,            !- Field 2
    Until: 24:00,            !- Field 3
    60;                     !- Field 4

Schedule:Compact,
    Lighting Sch,            !- Name
    Fraction,                !- Schedule Type Limits Name
    Through: 31 Dec,         !- Field 1
    For: Weekdays,           !- Field 2
    Until: 06:00,            !- Field 3
    0.00,                    !- Field 4
    Until: 22:00,            !- Field 5
    1.00,                    !- Field 6
    Until: 23:00,            !- Field 7
    0.80,                    !- Field 8
    Until: 24:00,            !- Field 9
    0.20,                    !- Field 10
    For: Saturday,           !- Field 11
    Until: 07:00,            !- Field 12
    0.00,                    !- Field 13
    Until: 22:00,            !- Field 14
    1.00,                    !- Field 15
    Until: 23:00,            !- Field 16
    0.80,                    !- Field 17
    Until: 24:00,            !- Field 18
    0.20,                    !- Field 19
    For: Sunday Holidays,    !- Field 20
    Until: 07:00,            !- Field 21
    0.00,                    !- Field 22
    Until: 22:00,            !- Field 23
    1.00,                    !- Field 24
    Until: 23:00,            !- Field 25
    0.80,                    !- Field 26
    Until: 24:00,            !- Field 27
    0.20,                    !- Field 28
    For: SummerDesignDay,    !- Field 29
    Until: 24:00,            !- Field 30
    1,                       !- Field 31
    For: AllOtherDays,       !- Field 32
    Until: 24:00,            !- Field 33
    0;                       !- Field 34

Schedule:Compact,
    People Sch,              !- Name
    Fraction,                !- Schedule Type Limits Name
    Through: 31 Dec,         !- Field 1
    For: Weekdays,           !- Field 2
    Until: 05:00,            !- Field 3
    1.00,                    !- Field 4
    Until: 06:00,            !- Field 5
    0.80,                    !- Field 6
    Until: 08:00,            !- Field 7
    0.75,                    !- Field 8
    Until: 09:00,            !- Field 9
    0.50,                    !- Field 10
    Until: 15:00,            !- Field 11
    0.43,                    !- Field 12
    Until: 18:00,            !- Field 13
    0.50,                    !- Field 14
    Until: 21:00,            !- Field 15
    0.75,                    !- Field 16
    Until: 24:00,            !- Field 17
    0.80,                    !- Field 18
    For: Saturday,           !- Field 19
    Until: 07:00,            !- Field 20
    1.00,                    !- Field 21
    Until: 08:00,            !- Field 22
    0.80,                    !- Field 23
    Until: 09:00,            !- Field 24
    0.75,                    !- Field 25
    Until: 10:00,            !- Field 26
    0.50,                    !- Field 27
    Until: 15:00,            !- Field 28
    0.43,                    !- Field 29
    Until: 18:00,            !- Field 30
    0.50,                    !- Field 31
    Until: 21:00,            !- Field 32
    0.75,                    !- Field 33
    Until: 24:00,            !- Field 34
    0.80,                    !- Field 35
    For: Sunday Holidays,    !- Field 36
    Until: 07:00,            !- Field 37
    1.00,                    !- Field 38
    Until: 08:00,            !- Field 39
    0.80,                    !- Field 40
    Until: 09:00,            !- Field 41
    0.75,                    !- Field 42
    Until: 10:00,            !- Field 43
    0.50,                    !- Field 44
    Until: 15:00,            !- Field 45
    0.43,                    !- Field 46
    Until: 18:00,            !- Field 47
    0.50,                    !- Field 48
    Until: 21:00,            !- Field 49
    0.75,                    !- Field 50
    Until: 24:00,            !- Field 51
    0.80,                    !- Field 52
    For: SummerDesignDay,    !- Field 53
    Until: 24:00,            !- Field 54
    1,                       !- Field 55
    For: AllOtherDays,       !- Field 56
    Until: 24:00,            !- Field 57
    0;                       !- Field 58

Schedule:Compact,
    Activity Schedule People,!- Name
    ActivityLevel,           !- Schedule Type Limits Name
    Through: 12/31,          !- Field 1
    For: AllDays,            !- Field 2
    Until: 24:00,            !- Field 3
    117;                     !- Field 4

Schedule:Compact,
    Work efficiency,         !- Name
    Fraction,              !- Schedule Type Limits Name
    Through: 12/31,          !- Field 1
    For: AllDays,            !- Field 2
    Until: 24:00,            !- Field 3
    0;                       !- Field 4

Schedule:Compact,
    Clothing Schedule 189,   !- Name
    Any Number,              !- Schedule Type Limits Name
    Through: 4/1,            !- Field 1
    For: AllDays,            !- Field 2
    Until: 24:00,            !- Field 3
    1,                       !- Field 4
    Through: 9/30,           !- Field 5
    For: AllDays,            !- Field 6
    Until: 24:00,            !- Field 7
    .5,                      !- Field 8
    Through: 12/31,          !- Field 9
    For: AllDays,            !- Field 10
    Until: 24:00,            !- Field 11
    1;                       !- Field 12

Schedule:Compact,
    Air Velocity Schedule,                    !- Name
    Velocity,                !- Schedule Type Limits Name
    Through: 12/31,          !- Field 1
    For: AllDays,            !- Field 2
    Until: 24:00,            !- Field 3
    0.1370;                  !- Field 4

Schedule:Compact,
    Misc Sch,                !- Name
    Dimensionless,           !- Schedule Type Limits Name
    Through: 12/31,          !- Field 1
    For: AllDays,            !- Field 2
    Until: 24:00,            !- Field 3
    1;                       !- Field 4

Schedule:Compact,
    Living_Unit Thermostat Schedule,  !- Name
    Living_Unit Thermostat Schedule Type Limits,  !- Schedule Type Limits Name
    Through: 12/31,          !- Field 1
    For: AllDays,            !- Field 2
    Until: 24:00,            !- Field 3
    4;                       !- Field 4

Schedule:Compact,
    189 Heating Setpoint Schedule,  !- Name
    Temperature,             !- Schedule Type Limits Name
    Through: 31 Dec,         !- Field 1
    For: Weekdays SummerDesignDay,  !- Field 2
    Until: 09:00,            !- Field 3
    20,                      !- Field 4
    Until: 20:00,            !- Field 5
    13,                      !- Field 6
    Until: 24:00,            !- Field 7
    20,                      !- Field 8
    For: WinterDesignDay,    !- Field 9
    Until: 24:00,            !- Field 10
    20,                      !- Field 11
    For: Weekends,           !- Field 12
    Until: 09:00,            !- Field 13
    20,                      !- Field 14
    Until: 20:00,            !- Field 15
    13,                      !- Field 16
    Until: 24:00,            !- Field 17
    20,                      !- Field 18
    For: Holidays,           !- Field 19
    Until: 09:00,            !- Field 20
    20,                      !- Field 21
    Until: 20:00,            !- Field 22
    13,                      !- Field 23
    Until: 24:00,            !- Field 24
    20,                      !- Field 25
    For: AllOtherDays,       !- Field 26
    Until: 24:00,            !- Field 27
    -50;                     !- Field 28

Schedule:Compact,
    189 Cooling SP Sch,      !- Name
    Temperature,           !- Schedule Type Limits Name
    Through: 12/31,          !- Field 1
    For: AllDays,            !- Field 2
    Until: 24:00,            !- Field 3
    100;                     !- Field 4

Schedule:Compact,
    189 Cooling Availability Sch,  !- Name
    ,                        !- Schedule Type Limits Name
    Through: 12/31,          !- Field 1
    For: AllDays,            !- Field 2
    Until: 24:00,            !- Field 3
    0;                       !- Field 4

Schedule:Compact,
    189 Heating Availability Sch,  !- Name
    Temperature,             !- Schedule Type Limits Name
    Through: 31 Dec,         !- Field 1
    For: Weekdays SummerDesignDay,  !- Field 2
    Until: 09:00,            !- Field 3
    1,                       !- Field 4
    Until: 20:00,            !- Field 5
    1,                       !- Field 6
    Until: 24:00,            !- Field 7
    1,                       !- Field 8
    For: WinterDesignDay,    !- Field 9
    Until: 24:00,            !- Field 10
    1,                       !- Field 11
    For: Weekends,           !- Field 12
    Until: 09:00,            !- Field 13
    1,                       !- Field 14
    Until: 20:00,            !- Field 15
    1,                       !- Field 16
    Until: 24:00,            !- Field 17
    1,                       !- Field 18
    For: Holidays,           !- Field 19
    Until: 09:00,            !- Field 20
    1,                       !- Field 21
    Until: 20:00,            !- Field 22
    1,                       !- Field 23
    Until: 24:00,            !- Field 24
    1,                       !- Field 25
    For: AllOtherDays,       !- Field 26
    Until: 24:00,            !- Field 27
    0;                       !- Field 28

Schedule:Compact,
    7,                       !- Name
    ,                        !- Schedule Type Limits Name
    Through: 12/31,          !- Field 1
    For: AllDays,            !- Field 2
    Until: 24:00,            !- Field 3
    0;                       !- Field 4

Schedule:Compact,
    Design Days Only,        !- Name
    ,                        !- Schedule Type Limits Name
    Through: 12/31,          !- Field 1
    For: SummerDesignDay WinterDesignDay,  !- Field 2
    Until: 24:00,            !- Field 3
    1,                       !- Field 4
    For: AllOtherDays,       !- Field 5
    Until: 24:00,            !- Field 6
    0;                       !- Field 7

Schedule:Compact,
    DHW Mains Temperature 189,  !- Name
    Temperature,             !- Schedule Type Limits Name
    Through: 12/31,          !- Field 1
    For: AllDays,            !- Field 2
    Until: 24:00,            !- Field 3
    10;                      !- Field 4

Schedule:Compact,
    DHW Supply Temperature 189,  !- Name
    Temperature,             !- Schedule Type Limits Name
    Through: 12/31,          !- Field 1
    For: AllDays,            !- Field 2
    Until: 24:00,            !- Field 3
    65;                      !- Field 4

Schedule:Compact,
    Off,                     !- Name
    ,                        !- Schedule Type Limits Name
    Through: 12/31,          !- Field 1
    For: AllDays,            !- Field 2
    Until: 24:00,            !- Field 3
    0;                       !- Field 4

Schedule:Compact,
    On,                      !- Name
    OnOff,                   !- Schedule Type Limits Name
    Through: 12/31,          !- Field 1
    For: AllDays,            !- Field 2
    Until: 24:00,            !- Field 3
    1;                       !- Field 4

Schedule:Compact,
    Zone Comfort Control Type Sched,  !- Name
    Any Number,              !- Schedule Type Limits Name
    Through: 12/31,          !- Field 1
    For: AllDays,            !- Field 2
    Until: 24:00,            !- Field 3
    4;                       !- Field 4


  Schedule:Compact,
    dhw_setpt,               !- Name
    Temperature,             !- Schedule Type Limits Name
    Through: 12/31,          !- Field 1
    For: AllDays,            !- Field 2
    Until 24:00,48;          !- Field 3

!-   ===========  ALL OBJECTS IN CLASS: SCHEDULE:CONSTANT ===========

  Schedule:Constant,DWWaterTempSchedule,Temperature,48.8888888888889;

  Schedule:Constant,CWWaterTempSchedule,Temperature,48.8888888888889;

  Schedule:Constant,SinkSensSchedule,Fraction,0.687777777777778;

  Schedule:Constant,SinkLatSchedule,Fraction,0.312222222222222;

  Schedule:Constant,ShowerSensSchedule,Fraction,0.51280276816609;

  Schedule:Constant,ShowerLatSchedule,Fraction,0.48719723183391;

  Schedule:Constant,BathSensSchedule,Fraction,1;

  Schedule:Constant,BathLatSchedule,Fraction,0;

  Schedule:Constant,SSBWaterTempSchedule,Temperature,40.5555555555556;

  Schedule:Constant,WaterHeaterSP1Schedule,Temperature,48.8888888888889;

  Schedule:Constant,WaterHeaterSP2Schedule,Temperature,40.5555555555556;

  Schedule:Constant,DHWSupplySetpoint,Temperature,48.8888888888889;

!-   ===========  ALL OBJECTS IN CLASS: SCHEDULE:CONSTANT ===========

Schedule:Constant,
    Always On Discrete hvac_library,  !- Name
    OnOff hvac_library,      !- Schedule Type Limits Name
    1;                       !- Hourly Value

Schedule:Constant,
    Always On Discrete,      !- Name
    OnOff,                 !- Schedule Type Limits Name
    1;                       !- Hourly Value

Schedule:Constant,
    Always Off Discrete,     !- Name
    ,                        !- Schedule Type Limits Name
    0;                       !- Hourly Value

Schedule:Constant,
    Always On Continuous,    !- Name
    ,                        !- Schedule Type Limits Name
    1;                       !- Hourly Value


!-   ===========  ALL OBJECTS IN CLASS: MATERIAL ===========

Material,
    1_1_37,                  !- Name
    Rough,                   !- Roughness
    0.0869,                  !- Thickness {m}
    0.04,                    !- Conductivity {W/m-K}
    10,                      !- Density {kg/m3}
    1400,                    !- Specific Heat {J/kg-K}
    0.9,                     !- Thermal Absorptance
    0.6,                     !- Solar Absorptance
    0.6;                     !- Visible Absorptance

Material,
    1_2_9,                   !- Name
    Rough,                   !- Roughness
    0.1,                     !- Thickness {m}
    1.13,                    !- Conductivity {W/m-K}
    2000,                    !- Density {kg/m3}
    1000,                    !- Specific Heat {J/kg-K}
    0.9,                     !- Thermal Absorptance
    0.6,                     !- Solar Absorptance
    0.6;                     !- Visible Absorptance

Material,
    1_3_29,                  !- Name
    Rough,                   !- Roughness
    0.07,                    !- Thickness {m}
    0.41,                    !- Conductivity {W/m-K}
    1200,                    !- Density {kg/m3}
    840,                     !- Specific Heat {J/kg-K}
    0.9,                     !- Thermal Absorptance
    0.73,                    !- Solar Absorptance
    0.73;                    !- Visible Absorptance

Material,
    1_4_34,                  !- Name
    Rough,                   !- Roughness
    0.03,                    !- Thickness {m}
    0.14,                    !- Conductivity {W/m-K}
    650,                     !- Density {kg/m3}
    1200,                    !- Specific Heat {J/kg-K}
    0.9,                     !- Thermal Absorptance
    0.78,                    !- Solar Absorptance
    0.78;                    !- Visible Absorptance

Material,
    3_1_36,                  !- Name
    Rough,                   !- Roughness
    0.01,                    !- Thickness {m}
    0.15,                    !- Conductivity {W/m-K}
    700,                     !- Density {kg/m3}
    1420,                    !- Specific Heat {J/kg-K}
    0.9,                     !- Thermal Absorptance
    0.78,                    !- Solar Absorptance
    0.78;                    !- Visible Absorptance

Material,
    3_2_20,                  !- Name
    Rough,                   !- Roughness
    0.1319,                  !- Thickness {m}
    0.04,                    !- Conductivity {W/m-K}
    12,                      !- Density {kg/m3}
    840,                     !- Specific Heat {J/kg-K}
    0.9,                     !- Thermal Absorptance
    0.6,                     !- Solar Absorptance
    0.6;                     !- Visible Absorptance

Material,
    3_3_8,                   !- Name
    Rough,                   !- Roughness
    0.1,                     !- Thickness {m}
    0.38,                    !- Conductivity {W/m-K}
    1200,                    !- Density {kg/m3}
    1000,                    !- Specific Heat {J/kg-K}
    0.9,                     !- Thermal Absorptance
    0.6,                     !- Solar Absorptance
    0.6;                     !- Visible Absorptance

Material,
    3_5_113,                 !- Name
    Rough,                   !- Roughness
    0.013,                   !- Thickness {m}
    0.25,                    !- Conductivity {W/m-K}
    2800,                    !- Density {kg/m3}
    896,                     !- Specific Heat {J/kg-K}
    0.9,                     !- Thermal Absorptance
    0.5,                     !- Solar Absorptance
    0.5;                     !- Visible Absorptance

Material,
    5_1_5,                   !- Name
    Rough,                   !- Roughness
    0.1,                     !- Thickness {m}
    0.84,                    !- Conductivity {W/m-K}
    1700,                    !- Density {kg/m3}
    800,                     !- Specific Heat {J/kg-K}