
Version,
  23.2;                                   !- Version Identifier

Timestep,
  2;                                      !- Number of Timesteps per Hour

LifeCycleCost:Parameters,
  Life Cycle Cost Parameters,             !- Name
  EndOfYear,                              !- Discounting Convention
  ConstantDollar,                         !- Inflation Approach
  0.03,                                   !- Real Discount Rate
  ,                                       !- Nominal Discount Rate
  ,                                       !- Inflation
  ,                                       !- Base Date Month
  2011,                                   !- Base Date Year
  ,                                       !- Service Date Month
  2011,                                   !- Service Date Year
  25,                                     !- Length of Study Period in Years
  ,                                       !- Tax rate
  None;                                   !- Depreciation Method

LifeCycleCost:UsePriceEscalation,
  U.S. Avg  Commercial-Electricity,       !- Name
  Electricity,                            !- Resource
  2011,                                   !- Escalation Start Year
  January,                                !- Escalation Start Month
  0.9838,                                 !- Year Escalation 1
  0.9730,                                 !- Year Escalation 2
  0.9632,                                 !- Year Escalation 3
  0.9611,                                 !- Year Escalation 4
  0.9571,                                 !- Year Escalation 5
  0.9553,                                 !- Year Escalation 6
  0.9539,                                 !- Year Escalation 7
  0.9521,                                 !- Year Escalation 8
  0.9546,                                 !- Year Escalation 9
  0.9550,                                 !- Year Escalation 10
  0.9553,                                 !- Year Escalation 11
  0.9564,                                 !- Year Escalation 12
  0.9575,                                 !- Year Escalation 13
  0.9596,                                 !- Year Escalation 14
  0.9618,                                 !- Year Escalation 15
  0.9614,                                 !- Year Escalation 16
  0.9618,                                 !- Year Escalation 17
  0.9618,                                 !- Year Escalation 18
  0.9593,                                 !- Year Escalation 19
  0.9589,                                 !- Year Escalation 20
  0.9607,                                 !- Year Escalation 21
  0.9625,                                 !- Year Escalation 22
  0.9650,                                 !- Year Escalation 23
  0.9708,                                 !- Year Escalation 24
  0.9751,                                 !- Year Escalation 25
  0.9762,                                 !- Year Escalation 26
  0.9766,                                 !- Year Escalation 27
  0.9766,                                 !- Year Escalation 28
  0.9769,                                 !- Year Escalation 29
  0.9773;                                 !- Year Escalation 30

LifeCycleCost:UsePriceEscalation,
  U.S. Avg  Commercial-Distillate Oil,    !- Name
  FuelOilNo1,                             !- Resource
  2011,                                   !- Escalation Start Year
  January,                                !- Escalation Start Month
  0.9714,                                 !- Year Escalation 1
  0.9730,                                 !- Year Escalation 2
  0.9942,                                 !- Year Escalation 3
  1.0164,                                 !- Year Escalation 4
  1.0541,                                 !- Year Escalation 5
  1.0928,                                 !- Year Escalation 6
  1.1267,                                 !- Year Escalation 7
  1.1580,                                 !- Year Escalation 8
  1.1792,                                 !- Year Escalation 9
  1.1967,                                 !- Year Escalation 10
  1.2200,                                 !- Year Escalation 11
  1.2333,                                 !- Year Escalation 12
  1.2566,                                 !- Year Escalation 13
  1.2709,                                 !- Year Escalation 14
  1.2826,                                 !- Year Escalation 15
  1.2985,                                 !- Year Escalation 16
  1.3102,                                 !- Year Escalation 17
  1.3250,                                 !- Year Escalation 18
  1.3261,                                 !- Year Escalation 19
  1.3282,                                 !- Year Escalation 20
  1.3324,                                 !- Year Escalation 21
  1.3356,                                 !- Year Escalation 22
  1.3431,                                 !- Year Escalation 23
  1.3510,                                 !- Year Escalation 24
  1.3568,                                 !- Year Escalation 25
  1.3606,                                 !- Year Escalation 26
  1.3637,                                 !- Year Escalation 27
  1.3674,                                 !- Year Escalation 28
  1.3706,                                 !- Year Escalation 29
  1.3743;                                 !- Year Escalation 30

LifeCycleCost:UsePriceEscalation,
  U.S. Avg  Commercial-Residual Oil,      !- Name
  FuelOilNo2,                             !- Resource
  2011,                                   !- Escalation Start Year
  January,                                !- Escalation Start Month
  0.8469,                                 !- Year Escalation 1
  0.8257,                                 !- Year Escalation 2
  0.8681,                                 !- Year Escalation 3
  0.8988,                                 !- Year Escalation 4
  0.9289,                                 !- Year Escalation 5
  0.9604,                                 !- Year Escalation 6
  0.9897,                                 !- Year Escalation 7
  1.0075,                                 !- Year Escalation 8
  1.0314,                                 !- Year Escalation 9
  1.0554,                                 !- Year Escalation 10
  1.0861,                                 !- Year Escalation 11
  1.1278,                                 !- Year Escalation 12
  1.1497,                                 !- Year Escalation 13
  1.1620,                                 !- Year Escalation 14
  1.1743,                                 !- Year Escalation 15
  1.1852,                                 !- Year Escalation 16
  1.1948,                                 !- Year Escalation 17
  1.2037,                                 !- Year Escalation 18
  1.2071,                                 !- Year Escalation 19
  1.2119,                                 !- Year Escalation 20
  1.2139,                                 !- Year Escalation 21
  1.2194,                                 !- Year Escalation 22
  1.2276,                                 !- Year Escalation 23
  1.2365,                                 !- Year Escalation 24
  1.2420,                                 !- Year Escalation 25
  1.2461,                                 !- Year Escalation 26
  1.2509,                                 !- Year Escalation 27
  1.2550,                                 !- Year Escalation 28
  1.2591,                                 !- Year Escalation 29
  1.2638;                                 !- Year Escalation 30

LifeCycleCost:UsePriceEscalation,
  U.S. Avg  Commercial-Natural gas,       !- Name
  NaturalGas,                             !- Resource
  2011,                                   !- Escalation Start Year
  January,                                !- Escalation Start Month
  0.9823,                                 !- Year Escalation 1
  0.9557,                                 !- Year Escalation 2
  0.9279,                                 !- Year Escalation 3
  0.9257,                                 !- Year Escalation 4
  0.9346,                                 !- Year Escalation 5
  0.9412,                                 !- Year Escalation 6
  0.9512,                                 !- Year Escalation 7
  0.9645,                                 !- Year Escalation 8
  0.9856,                                 !- Year Escalation 9
  1.0067,                                 !- Year Escalation 10
  1.0222,                                 !- Year Escalation 11
  1.0410,                                 !- Year Escalation 12
  1.0610,                                 !- Year Escalation 13
  1.0787,                                 !- Year Escalation 14
  1.0942,                                 !- Year Escalation 15
  1.1098,                                 !- Year Escalation 16
  1.1220,                                 !- Year Escalation 17
  1.1308,                                 !- Year Escalation 18
  1.1386,                                 !- Year Escalation 19
  1.1486,                                 !- Year Escalation 20
  1.1619,                                 !- Year Escalation 21
  1.1763,                                 !- Year Escalation 22
  1.1918,                                 !- Year Escalation 23
  1.2118,                                 !- Year Escalation 24
  1.2284,                                 !- Year Escalation 25
  1.2439,                                 !- Year Escalation 26
  1.2605,                                 !- Year Escalation 27
  1.2772,                                 !- Year Escalation 28
  1.2938,                                 !- Year Escalation 29
  1.3115;                                 !- Year Escalation 30

LifeCycleCost:UsePriceEscalation,
  U.S. Avg  Commercial-Coal,              !- Name
  Coal,                                   !- Resource
  2011,                                   !- Escalation Start Year
  January,                                !- Escalation Start Month
  0.9970,                                 !- Year Escalation 1
  1.0089,                                 !- Year Escalation 2
  1.0089,                                 !- Year Escalation 3
  0.9941,                                 !- Year Escalation 4
  0.9941,                                 !- Year Escalation 5
  1.0000,                                 !- Year Escalation 6
  1.0030,                                 !- Year Escalation 7
  1.0059,                                 !- Year Escalation 8
  1.0089,                                 !- Year Escalation 9
  1.0119,                                 !- Year Escalation 10
  1.0148,                                 !- Year Escalation 11
  1.0178,                                 !- Year Escalation 12
  1.0208,                                 !- Year Escalation 13
  1.0267,                                 !- Year Escalation 14
  1.0297,                                 !- Year Escalation 15
  1.0356,                                 !- Year Escalation 16
  1.0415,                                 !- Year Escalation 17
  1.0534,                                 !- Year Escalation 18
  1.0564,                                 !- Year Escalation 19
  1.0593,                                 !- Year Escalation 20
  1.0653,                                 !- Year Escalation 21
  1.0712,                                 !- Year Escalation 22
  1.0742,                                 !- Year Escalation 23
  1.0801,                                 !- Year Escalation 24
  1.0831,                                 !- Year Escalation 25
  1.0831,                                 !- Year Escalation 26
  1.0861,                                 !- Year Escalation 27
  1.0890,                                 !- Year Escalation 28
  1.0920,                                 !- Year Escalation 29
  1.0950;                                 !- Year Escalation 30

Building,
  SF,                                     !- Name
  0,                                      !- North Axis {deg}
  Suburbs,                                !- Terrain
  0.04,                                   !- Loads Convergence Tolerance Value {W}
  0.4,                                    !- Temperature Convergence Tolerance Value {deltaC}
  FullExterior,                           !- Solar Distribution
  25,                                     !- Maximum Number of Warmup Days
  6;                                      !- Minimum Number of Warmup Days

Zone,
  Attic,                                  !- Name
  0,                                      !- Direction of Relative North {deg}
  0,                                      !- X Origin {m}
  0,                                      !- Y Origin {m}
  0,                                      !- Z Origin {m}
  ,                                       !- Type
  1,                                      !- Multiplier
  ,                                       !- Ceiling Height {m}
  47.4234,                                !- Volume {m3}
  ,                                       !- Floor Area {m2}
  TARP,                                   !- Zone Inside Convection Algorithm
  ,                                       !- Zone Outside Convection Algorithm
  No;                                     !- Part of Total Floor Area

Space,
  Attic Space,                            !- Name
  Attic,                                  !- Zone Name
  ,                                       !- Ceiling Height {m}
  ,                                       !- Volume {m3}
  ;                                       !- Floor Area {m2}

BuildingSurface:Detailed,
  241_Floor_2_0_10000,                    !- Name
  Floor,                                  !- Surface Type
  floor-const,                            !- Construction Name
  Attic,                                  !- Zone Name
  Attic Space,                            !- Space Name
  Surface,                                !- Outside Boundary Condition
  189_Ceiling_1_0_0,                      !- Outside Boundary Condition Object
  NoSun,                                  !- Sun Exposure
  NoWind,                                 !- Wind Exposure
  0,                                      !- View Factor to Ground
  ,                                       !- Number of Vertices
  10.99999995, 7.1999999891, 2.75,        !- X,Y,Z Vertex 1 {m}
  10.9999999, 1.291e-07, 2.75,            !- X,Y,Z Vertex 2 {m}
  2e-07, 2.191e-07, 2.75,                 !- X,Y,Z Vertex 3 {m}
  1e-07, 7.1999999991, 2.75;              !- X,Y,Z Vertex 4 {m}

BuildingSurface:Detailed,
  241_Roof_1_0_0,                         !- Name
  Roof,                                   !- Surface Type
  roof-const,                             !- Construction Name
  Attic,                                  !- Zone Name
  Attic Space,                            !- Space Name
  Outdoors,                               !- Outside Boundary Condition
  ,                                       !- Outside Boundary Condition Object
  SunExposed,                             !- Sun Exposure
  WindExposed,                            !- Wind Exposure
  ,                                       !- View Factor to Ground
  ,                                       !- Number of Vertices
  1.5e-07, 3.6000001204, 3.9475605187,    !- X,Y,Z Vertex 1 {m}
  2e-07, 2.196e-07, 2.7499999413,         !- X,Y,Z Vertex 2 {m}
  10.9999999, 1.261e-07, 2.7499999347,    !- X,Y,Z Vertex 3 {m}
  10.9999999274, 3.6000000737, 3.9475605276; !- X,Y,Z Vertex 4 {m}

BuildingSurface:Detailed,
  241_Roof_3_0_0,                         !- Name
  Roof,                                   !- Surface Type
  roof-const,                             !- Construction Name
  Attic,                                  !- Zone Name
  Attic Space,                            !- Space Name
  Outdoors,                               !- Outside Boundary Condition
  ,                                       !- Outside Boundary Condition Object
  SunExposed,                             !- Sun Exposure
  WindExposed,                            !- Wind Exposure
  ,                                       !- View Factor to Ground
  ,                                       !- Number of Vertices
  10.9999999274, 3.6000000746, 3.9475605279, !- X,Y,Z Vertex 1 {m}
  10.99999995, 7.2000000195, 2.7499999365, !- X,Y,Z Vertex 2 {m}
  1e-07, 7.2000000205, 2.7499999416,      !- X,Y,Z Vertex 3 {m}
  1.5e-07, 3.6000001195, 3.9475605184;    !- X,Y,Z Vertex 4 {m}

BuildingSurface:Detailed,
  241_Wall_0_0_0,                         !- Name
  Wall,                                   !- Surface Type
  ext-wall-base,                          !- Construction Name
  Attic,                                  !- Zone Name
  Attic Space,                            !- Space Name
  Outdoors,                               !- Outside Boundary Condition
  ,                                       !- Outside Boundary Condition Object
  SunExposed,                             !- Sun Exposure
  WindExposed,                            !- Wind Exposure
  ,                                       !- View Factor to Ground
  ,                                       !- Number of Vertices
  1.5e-07, 3.60000012, 3.94756052,        !- X,Y,Z Vertex 1 {m}
  1e-07, 7.20000002, 2.74999994,          !- X,Y,Z Vertex 2 {m}
  2e-07, 2.2e-07, 2.74999994;             !- X,Y,Z Vertex 3 {m}

BuildingSurface:Detailed,
  241_Wall_4_0_0,                         !- Name
  Wall,                                   !- Surface Type
  ext-wall-base,                          !- Construction Name
  Attic,                                  !- Zone Name
  Attic Space,                            !- Space Name
  Outdoors,                               !- Outside Boundary Condition
  ,                                       !- Outside Boundary Condition Object
  SunExposed,                             !- Sun Exposure
  WindExposed,                            !- Wind Exposure
  ,                                       !- View Factor to Ground
  ,                                       !- Number of Vertices
  10.9999999274, 3.6000000741, 3.9475605263, !- X,Y,Z Vertex 1 {m}
  10.999999925, 1.257e-07, 2.7499999359,  !- X,Y,Z Vertex 2 {m}
  10.999999925, 7.20000002, 2.7499999381; !- X,Y,Z Vertex 3 {m}

ZoneInfiltration:DesignFlowRate,
  241 Infiltration,                       !- Name
  Attic Space,                            !- Zone or ZoneList or Space or SpaceList Name
  ,                                       !- Schedule Name
  Flow/Zone,                              !- Design Flow Rate Calculation Method
  0.013173,                               !- Design Flow Rate {m3/s}
  ,                                       !- Flow Rate per Floor Area {m3/s-m2}
  ,                                       !- Flow Rate per Exterior Surface Area {m3/s-m2}
  ,                                       !- Air Changes per Hour {1/hr}
  1,                                      !- Constant Term Coefficient
  0,                                      !- Temperature Term Coefficient
  0,                                      !- Velocity Term Coefficient
  0;                                      !- Velocity Squared Term Coefficient

Zone,
  Living-Unit,                            !- Name
  0,                                      !- Direction of Relative North {deg}
  0,                                      !- X Origin {m}
  0,                                      !- Y Origin {m}
  0,                                      !- Z Origin {m}
  ,                                       !- Type
  1,                                      !- Multiplier
  ,                                       !- Ceiling Height {m}
  217.8,                                  !- Volume {m3}
  ,                                       !- Floor Area {m2}
  TARP,                                   !- Zone Inside Convection Algorithm
  ,                                       !- Zone Outside Convection Algorithm
  Yes;                                    !- Part of Total Floor Area

Space,
  Living Space,                           !- Name
  Living-Unit,                            !- Zone Name
  ,                                       !- Ceiling Height {m}
  ,                                       !- Volume {m3}
  ;                                       !- Floor Area {m2}

BuildingSurface:Detailed,
  189_Ceiling_1_0_0,                      !- Name
  Ceiling,                                !- Surface Type
  ceiling-const,                          !- Construction Name
  Living-Unit,                            !- Zone Name
  Living Space,                           !- Space Name
  Surface,                                !- Outside Boundary Condition
  241_Floor_2_0_10000,                    !- Outside Boundary Condition Object
  NoSun,                                  !- Sun Exposure
  NoWind,                                 !- Wind Exposure
  0,                                      !- View Factor to Ground
  ,                                       !- Number of Vertices
  10.9999999, 1.291e-07, 2.75,            !- X,Y,Z Vertex 1 {m}
  10.99999995, 7.1999999891, 2.75,        !- X,Y,Z Vertex 2 {m}
  1e-07, 7.1999999991, 2.75,              !- X,Y,Z Vertex 3 {m}
  2e-07, 2.191e-07, 2.75;                 !- X,Y,Z Vertex 4 {m}

BuildingSurface:Detailed,
  189_GroundFloor_0_0_0,                  !- Name
  Floor,                                  !- Surface Type
  slab-on-floor-const,                    !- Construction Name
  Living-Unit,                            !- Zone Name
  Living Space,                           !- Space Name
  Ground,                                 !- Outside Boundary Condition
  ,                                       !- Outside Boundary Condition Object
  NoSun,                                  !- Sun Exposure
  NoWind,                                 !- Wind Exposure
  ,                                       !- View Factor to Ground
  ,                                       !- Number of Vertices
  10.99999995, 7.1999999936, 0,           !- X,Y,Z Vertex 1 {m}
  10.9999999, 1.036e-07, 0,               !- X,Y,Z Vertex 2 {m}
  1e-07, 1e-07, 0,                        !- X,Y,Z Vertex 3 {m}
  1e-07, 7.2, 0;                          !- X,Y,Z Vertex 4 {m}

BuildingSurface:Detailed,
  189_Wall_2_0_0,                         !- Name
  Wall,                                   !- Surface Type
  ext-wall-base,                          !- Construction Name
  Living-Unit,                            !- Zone Name
  Living Space,                           !- Space Name
  Outdoors,                               !- Outside Boundary Condition
  ,                                       !- Outside Boundary Condition Object
  SunExposed,                             !- Sun Exposure
  WindExposed,                            !- Wind Exposure
  ,                                       !- View Factor to Ground
  ,                                       !- Number of Vertices
  10.9999999, 1.036e-07, 2.75,            !- X,Y,Z Vertex 1 {m}
  10.9999999, 1.036e-07, 0,               !- X,Y,Z Vertex 2 {m}
  10.99999995, 7.1999999936, 0,           !- X,Y,Z Vertex 3 {m}
  10.99999995, 7.1999999936, 2.75;        !- X,Y,Z Vertex 4 {m}

FenestrationSurface:Detailed,
  189_Wall_2_0_0_0_0_0_Win,               !- Name
  Window,                                 !- Surface Type
  glazing-base,                           !- Construction Name
  189_Wall_2_0_0,                         !- Building Surface Name
  ,                                       !- Outside Boundary Condition Object
  ,                                       !- View Factor to Ground
  ,                                       !- Frame and Divider Name
  1,                                      !- Multiplier
  ,                                       !- Number of Vertices
  10.9999999178, 2.5677198136, 2.30000007, !- X,Y,Z Vertex 1 {m}
  10.9999999178, 2.5677198136, 0.80000007, !- X,Y,Z Vertex 2 {m}
  10.9999999319, 4.5927198136, 0.80000007, !- X,Y,Z Vertex 3 {m}
  10.9999999319, 4.5927198136, 2.30000007; !- X,Y,Z Vertex 4 {m}

BuildingSurface:Detailed,
  189_Wall_3_0_0,                         !- Name
  Wall,                                   !- Surface Type
  ext-wall-base,                          !- Construction Name
  Living-Unit,                            !- Zone Name
  Living Space,                           !- Space Name
  Outdoors,                               !- Outside Boundary Condition
  ,                                       !- Outside Boundary Condition Object
  SunExposed,                             !- Sun Exposure
  WindExposed,                            !- Wind Exposure
  ,                                       !- View Factor to Ground
  ,                                       !- Number of Vertices
  10.99999995, 7.1999999936, 2.75,        !- X,Y,Z Vertex 1 {m}
  10.99999995, 7.1999999936, 0,           !- X,Y,Z Vertex 2 {m}
  1e-07, 7.2, 0,                          !- X,Y,Z Vertex 3 {m}
  1e-07, 7.2, 2.75;                       !- X,Y,Z Vertex 4 {m}

FenestrationSurface:Detailed,
  189_Wall_3_0_0_0_0_1_Win,               !- Name
  Window,                                 !- Surface Type
  glazing-base,                           !- Construction Name
  189_Wall_3_0_0,                         !- Building Surface Name
  ,                                       !- Outside Boundary Condition Object
  ,                                       !- View Factor to Ground
  ,                                       !- Frame and Divider Name
  1,                                      !- Multiplier
  ,                                       !- Number of Vertices
  6.5000000542, 7.1999999962, 2.30000005, !- X,Y,Z Vertex 1 {m}
  6.5000000542, 7.1999999962, 0.80000005, !- X,Y,Z Vertex 2 {m}
  3.9590000542, 7.1999999977, 0.80000005, !- X,Y,Z Vertex 3 {m}
  3.9590000542, 7.1999999977, 2.30000005; !- X,Y,Z Vertex 4 {m}

FenestrationSurface:Detailed,
  189_Wall_3_0_0_1_0_0_Door,              !- Name
  Door,                                   !- Surface Type
  door-const,                             !- Construction Name
  189_Wall_3_0_0,                         !- Building Surface Name
  ,                                       !- Outside Boundary Condition Object
  ,                                       !- View Factor to Ground
  ,                                       !- Frame and Divider Name
  1,                                      !- Multiplier
  ,                                       !- Number of Vertices
  10.8929999542, 7.1999999937, 1.998,     !- X,Y,Z Vertex 1 {m}
  10.8929999542, 7.1999999937, 0.002,     !- X,Y,Z Vertex 2 {m}
  9.7969999542, 7.1999999943, 0.002,      !- X,Y,Z Vertex 3 {m}
  9.7969999542, 7.1999999943, 1.998;      !- X,Y,Z Vertex 4 {m}

BuildingSurface:Detailed,
  189_Wall_4_0_0,                         !- Name
  Wall,                                   !- Surface Type
  ext-wall-base,                          !- Construction Name
  Living-Unit,                            !- Zone Name
  Living Space,                           !- Space Name
  Outdoors,                               !- Outside Boundary Condition
  ,                                       !- Outside Boundary Condition Object
  SunExposed,                             !- Sun Exposure
  WindExposed,                            !- Wind Exposure
  ,                                       !- View Factor to Ground
  ,                                       !- Number of Vertices
  1e-07, 7.2, 2.75,                       !- X,Y,Z Vertex 1 {m}
  1e-07, 7.2, 0,                          !- X,Y,Z Vertex 2 {m}
  1e-07, 1e-07, 0,                        !- X,Y,Z Vertex 3 {m}
  1e-07, 1e-07, 2.75;                     !- X,Y,Z Vertex 4 {m}

FenestrationSurface:Detailed,
  189_Wall_4_0_0_0_0_0_Win,               !- Name
  Window,                                 !- Surface Type
  glazing-base,                           !- Construction Name
  189_Wall_4_0_0,                         !- Building Surface Name
  ,                                       !- Outside Boundary Condition Object
  ,                                       !- View Factor to Ground
  ,                                       !- Frame and Divider Name
  1,                                      !- Multiplier
  ,                                       !- Number of Vertices
  1e-07, 4.71406005, 2.30000013,          !- X,Y,Z Vertex 1 {m}
  1e-07, 4.71406005, 0.80000013,          !- X,Y,Z Vertex 2 {m}
  1e-07, 2.68906005, 0.80000013,          !- X,Y,Z Vertex 3 {m}
  1e-07, 2.68906005, 2.30000013;          !- X,Y,Z Vertex 4 {m}

BuildingSurface:Detailed,
  189_Wall_5_0_0,                         !- Name
  Wall,                                   !- Surface Type
  ext-wall-base,                          !- Construction Name
  Living-Unit,                            !- Zone Name
  Living Space,                           !- Space Name
  Outdoors,                               !- Outside Boundary Condition
  ,                                       !- Outside Boundary Condition Object
  SunExposed,                             !- Sun Exposure
  WindExposed,                            !- Wind Exposure
  ,                                       !- View Factor to Ground
  ,                                       !- Number of Vertices
  1e-07, 1e-07, 2.75,                     !- X,Y,Z Vertex 1 {m}
  1e-07, 1e-07, 0,                        !- X,Y,Z Vertex 2 {m}
  10.9999999, 1.036e-07, 0,               !- X,Y,Z Vertex 3 {m}
  10.9999999, 1.036e-07, 2.75;            !- X,Y,Z Vertex 4 {m}

FenestrationSurface:Detailed,
  189_Wall_5_0_0_0_0_1_Win,               !- Name
  Window,                                 !- Surface Type
  glazing-base,                           !- Construction Name
  189_Wall_5_0_0,                         !- Building Surface Name
  ,                                       !- Outside Boundary Condition Object
  ,                                       !- View Factor to Ground