
!-   ===========  ALL OBJECTS IN CLASS: VERSION ===========

Version,
    24.1;                    !- Version Identifier


!-   ===========  ALL OBJECTS IN CLASS: SIMULATIONCONTROL ===========

SimulationControl,
    Yes,                     !- Do Zone Sizing Calculation
    Yes,                     !- Do System Sizing Calculation
    Yes,                     !- Do Plant Sizing Calculation
    No,                      !- Run Simulation for Sizing Periods
    Yes,                     !- Run Simulation for Weather File Run Periods
    No,                      !- Do HVAC Sizing Simulation for Sizing Periods
    ;                        !- Maximum Number of HVAC Sizing Simulation Passes


!-   ===========  ALL OBJECTS IN CLASS: BUILDING ===========

Building,
    SF,                      !- Name
    0,                       !- North Axis {deg}
    Suburbs,                 !- Terrain
    0.04,                    !- Loads Convergence Tolerance Value {W}
    0.4,                     !- Temperature Convergence Tolerance Value {deltaC}
    FullExterior,            !- Solar Distribution
    25,                      !- Maximum Number of Warmup Days
    6;                       !- Minimum Number of Warmup Days


!-   ===========  ALL OBJECTS IN CLASS: SHADOWCALCULATION ===========

ShadowCalculation,
    PolygonClipping,         !- Shading Calculation Method
    Periodic,                !- Shading Calculation Update Frequency Method
    20,                      !- Shading Calculation Update Frequency
    15000,                   !- Maximum Figures in Shadow Overlap Calculations
    SutherlandHodgman,       !- Polygon Clipping Algorithm
    512,                     !- Pixel Counting Resolution
    SimpleSkyDiffuseModeling,!- Sky Diffuse Modeling Algorithm
    No,                      !- Output External Shading Calculation Results
    No,                      !- Disable Self-Shading Within Shading Zone Groups
    No;                      !- Disable Self-Shading From Shading Zone Groups to Other Zones


!-   ===========  ALL OBJECTS IN CLASS: SURFACECONVECTIONALGORITHM:INSIDE ===========

SurfaceConvectionAlgorithm:Inside,
    TARP;                    !- Algorithm


!-   ===========  ALL OBJECTS IN CLASS: SURFACECONVECTIONALGORITHM:OUTSIDE ===========

SurfaceConvectionAlgorithm:Outside,
    DOE-2;                   !- Algorithm


!-   ===========  ALL OBJECTS IN CLASS: HEATBALANCEALGORITHM ===========

HeatBalanceAlgorithm,
    ConductionTransferFunction,  !- Algorithm
    2000,                    !- Surface Temperature Upper Limit {C}
    1e-08,                   !- Minimum Surface Convection Heat Transfer Coefficient Value {W/m2-K}
    1000;                    !- Maximum Surface Convection Heat Transfer Coefficient Value {W/m2-K}


!-   ===========  ALL OBJECTS IN CLASS: ZONEAIRHEATBALANCEALGORITHM ===========

ZoneAirHeatBalanceAlgorithm,
    ThirdOrderBackwardDifference,  !- Algorithm
    No,                      !- Do Space Heat Balance for Sizing
    No;                      !- Do Space Heat Balance for Simulation


!-   ===========  ALL OBJECTS IN CLASS: ZONEAIRCONTAMINANTBALANCE ===========

ZoneAirContaminantBalance,
    No;                      !- Carbon Dioxide Concentration


!-   ===========  ALL OBJECTS IN CLASS: ZONECAPACITANCEMULTIPLIER:RESEARCHSPECIAL ===========

ZoneCapacitanceMultiplier:ResearchSpecial,
    Zone Capacitance Multiplier Research Special,  !- Name
    ,                        !- Zone or ZoneList Name
    ,                        !- Temperature Capacity Multiplier
    ,                        !- Humidity Capacity Multiplier
    ,                        !- Carbon Dioxide Capacity Multiplier
    ;                        !- Generic Contaminant Capacity Multiplier


!-   ===========  ALL OBJECTS IN CLASS: TIMESTEP ===========

Timestep,
    4;                       !- Number of Timesteps per Hour


!-   ===========  ALL OBJECTS IN CLASS: CONVERGENCELIMITS ===========

ConvergenceLimits,
    1,                       !- Minimum System Timestep {minutes}
    25;                      !- Maximum HVAC Iterations


!-   ===========  ALL OBJECTS IN CLASS: SITE:LOCATION ===========

Site:Location,
    DEBRECEN,                !- Name
    47.48,                   !- Latitude {deg}
    21.63,                   !- Longitude {deg}
    1,                       !- Time Zone {hr}
    112;                     !- Elevation {m}


!-   ===========  ALL OBJECTS IN CLASS: SIZINGPERIOD:DESIGNDAY ===========

SizingPeriod:DesignDay,
    DEBRECEN Ann Clg .4% Condns DB=>MWB,  !- Name
    7,                       !- Month
    21,                      !- Day of Month
    SummerDesignDay,         !- Day Type
    31.7,                    !- Maximum Dry-Bulb Temperature {C}
    11.1,                    !- Daily Dry-Bulb Temperature Range {deltaC}
    DefaultMultipliers,      !- Dry-Bulb Temperature Range Modifier Type
    ,                        !- Dry-Bulb Temperature Range Modifier Day Schedule Name
    Wetbulb,                 !- Humidity Condition Type
    21.3,                    !- Wetbulb or DewPoint at Maximum Dry-Bulb {C}
    ,                        !- Humidity Condition Day Schedule Name
    ,                        !- Humidity Ratio at Maximum Dry-Bulb {kgWater/kgDryAir}
    ,                        !- Enthalpy at Maximum Dry-Bulb {J/kg}
    ,                        !- Daily Wet-Bulb Temperature Range {deltaC}
    99987,                   !- Barometric Pressure {Pa}
    2.8,                     !- Wind Speed {m/s}
    180,                     !- Wind Direction {deg}
    No,                      !- Rain Indicator
    No,                      !- Snow Indicator
    No,                      !- Daylight Saving Time Indicator
    ASHRAETau,               !- Solar Model Indicator
    ,                        !- Beam Solar Day Schedule Name
    ,                        !- Diffuse Solar Day Schedule Name
    0.502,                   !- ASHRAE Clear Sky Optical Depth for Beam Irradiance (taub) {dimensionless}
    1.851,                   !- ASHRAE Clear Sky Optical Depth for Diffuse Irradiance (taud) {dimensionless}
    ,                        !- Sky Clearness
    ,                        !- Maximum Number Warmup Days
    FullResetAtBeginEnvironment;  !- Begin Environment Reset Mode

SizingPeriod:DesignDay,
    DEBRECEN Ann Htg 99.6% Condns DB,  !- Name
    1,                       !- Month
    21,                      !- Day of Month
    WinterDesignDay,         !- Day Type
    -13.8,                   !- Maximum Dry-Bulb Temperature {C}
    0,                       !- Daily Dry-Bulb Temperature Range {deltaC}
    DefaultMultipliers,      !- Dry-Bulb Temperature Range Modifier Type
    ,                        !- Dry-Bulb Temperature Range Modifier Day Schedule Name
    Wetbulb,                 !- Humidity Condition Type
    -13.8,                   !- Wetbulb or DewPoint at Maximum Dry-Bulb {C}
    ,                        !- Humidity Condition Day Schedule Name
    ,                        !- Humidity Ratio at Maximum Dry-Bulb {kgWater/kgDryAir}
    ,                        !- Enthalpy at Maximum Dry-Bulb {J/kg}
    ,                        !- Daily Wet-Bulb Temperature Range {deltaC}
    99987,                   !- Barometric Pressure {Pa}
    1.9,                     !- Wind Speed {m/s}
    50,                      !- Wind Direction {deg}
    No,                      !- Rain Indicator
    No,                      !- Snow Indicator
    No,                      !- Daylight Saving Time Indicator
    ASHRAEClearSky,          !- Solar Model Indicator
    ,                        !- Beam Solar Day Schedule Name
    ,                        !- Diffuse Solar Day Schedule Name
    ,                        !- ASHRAE Clear Sky Optical Depth for Beam Irradiance (taub) {dimensionless}
    ,                        !- ASHRAE Clear Sky Optical Depth for Diffuse Irradiance (taud) {dimensionless}
    0,                       !- Sky Clearness
    ,                        !- Maximum Number Warmup Days
    FullResetAtBeginEnvironment;  !- Begin Environment Reset Mode


!-   ===========  ALL OBJECTS IN CLASS: RUNPERIOD ===========

RunPeriod,
    Detached house Annual,   !- Name
    1,                       !- Begin Month
    1,                       !- Begin Day of Month
    2006,                    !- Begin Year
    12,                      !- End Month
    31,                      !- End Day of Month
    2006,                    !- End Year
    Sunday,                  !- Day of Week for Start Day
    No,                      !- Use Weather File Holidays and Special Days
    No,                      !- Use Weather File Daylight Saving Period
    Yes,                     !- Apply Weekend Holiday Rule
    Yes,                     !- Use Weather File Rain Indicators
    Yes;                     !- Use Weather File Snow Indicators


!-   ===========  ALL OBJECTS IN CLASS: RUNPERIODCONTROL:SPECIALDAYS ===========

RunPeriodControl:SpecialDays,
    Boxing Day,              !- Name
    26 Dec,                  !- Start Date
    1,                       !- Duration {days}
    Holiday;                 !- Special Day Type

RunPeriodControl:SpecialDays,
    Christmas Day,           !- Name
    25 Dec,                  !- Start Date
    1,                       !- Duration {days}
    Holiday;                 !- Special Day Type

RunPeriodControl:SpecialDays,
    Easter Monday,           !- Name
    2nd Monday in April,     !- Start Date
    1,                       !- Duration {days}
    Holiday;                 !- Special Day Type

RunPeriodControl:SpecialDays,
    Easter Sunday,           !- Name
    1st Sunday in April,     !- Start Date
    1,                       !- Duration {days}
    Holiday;                 !- Special Day Type

RunPeriodControl:SpecialDays,
    New Years Day,           !- Name
    1 Jan,                   !- Start Date
    1,                       !- Duration {days}
    Holiday;                 !- Special Day Type


!-   ===========  ALL OBJECTS IN CLASS: RUNPERIODCONTROL:DAYLIGHTSAVINGTIME ===========

RunPeriodControl:DaylightSavingTime,
    Last Sunday in March,    !- Start Date
    Last Sunday in October;  !- End Date


!-   ===========  ALL OBJECTS IN CLASS: SCHEDULETYPELIMITS ===========

ScheduleTypeLimits,
    Fraction,                !- Name
    0,                       !- Lower Limit Value
    1,                       !- Upper Limit Value
    CONTINUOUS;              !- Numeric Type

ScheduleTypeLimits,
    ActivityLevel,           !- Name
    0,                       !- Lower Limit Value
    ,                        !- Upper Limit Value
    Continuous,              !- Numeric Type
    activitylevel;           !- Unit Type

ScheduleTypeLimits,
    Any Number;              !- Name

ScheduleTypeLimits,
    Velocity,                !- Name
    0,                       !- Lower Limit Value
    ,                        !- Upper Limit Value
    Continuous,              !- Numeric Type
    velocity;                !- Unit Type

ScheduleTypeLimits,
    Dimensionless,           !- Name
    ,                        !- Lower Limit Value
    ,                        !- Upper Limit Value
    Continuous;              !- Numeric Type

ScheduleTypeLimits,
    Living_Unit Thermostat Schedule Type Limits,  !- Name
    0,                       !- Lower Limit Value
    4,                       !- Upper Limit Value
    DISCRETE;                !- Numeric Type

ScheduleTypeLimits,
    Temperature,             !- Name
    -60,                     !- Lower Limit Value
    200,                     !- Upper Limit Value
    CONTINUOUS,              !- Numeric Type
    temperature;             !- Unit Type

ScheduleTypeLimits,
    OnOff,                   !- Name
    0,                       !- Lower Limit Value
    1,                       !- Upper Limit Value
    Discrete,                !- Numeric Type
    availability;            !- Unit Type

ScheduleTypeLimits,
    OnOff hvac_library,      !- Name
    0,                       !- Lower Limit Value
    1,                       !- Upper Limit Value
    Discrete,                !- Numeric Type
    availability;            !- Unit Type


!-   ===========  ALL OBJECTS IN CLASS: SCHEDULE:DAY:HOURLY ===========

Schedule:Day:Hourly,
    RefrigeratorDay,         !- Name
    Fraction,                !- Schedule Type Limits Name
    0.8,                     !- Hour 1
    0.782696177062374,       !- Hour 2
    0.765593561368209,       !- Hour 3
    0.742857142857143,       !- Hour 4
    0.731388329979879,       !- Hour 5
    0.731388329979879,       !- Hour 6
    0.759959758551308,       !- Hour 7
    0.8,                     !- Hour 8
    0.817102615694165,       !- Hour 9
    0.828571428571429,       !- Hour 10
    0.8,                     !- Hour 11
    0.8,                     !- Hour 12
    0.839839034205231,       !- Hour 13
    0.839839034205231,       !- Hour 14
    0.828571428571429,       !- Hour 15
    0.839839034205231,       !- Hour 16
    0.885714285714286,       !- Hour 17
    0.971428571428572,       !- Hour 18
    1,                       !- Hour 19
    0.971428571428572,       !- Hour 20
    0.942857142857143,       !- Hour 21
    0.925553319919517,       !- Hour 22
    0.885714285714286,       !- Hour 23
    0.828571428571429;       !- Hour 24

Schedule:Day:Hourly,
    MiscPlugLoadDay,         !- Name
    Fraction,                !- Schedule Type Limits Name
    0.607490272373541,       !- Hour 1
    0.559338521400778,       !- Hour 2
    0.552853437094682,       !- Hour 3
    0.545071335927367,       !- Hour 4
    0.524481193255512,       !- Hour 5
    0.585278858625162,       !- Hour 6
    0.676232166018158,       !- Hour 7
    0.718547341115435,       !- Hour 8
    0.607490272373541,       !- Hour 9
    0.517023346303502,       !- Hour 10
    0.529182879377432,       !- Hour 11
    0.529345006485084,       !- Hour 12
    0.520428015564202,       !- Hour 13
    0.538424124513619,       !- Hour 14
    0.568741893644617,       !- Hour 15
    0.600356679636835,       !- Hour 16
    0.71011673151751,        !- Hour 17
    0.862678339818418,       !- Hour 18
    0.936608300907912,       !- Hour 19
    0.966763942931258,       !- Hour 20
    1,                       !- Hour 21
    0.976653696498055,       !- Hour 22
    0.845168612191959,       !- Hour 23
    0.73443579766537;        !- Hour 24

Schedule:Day:Hourly,
    CookingRangeDay,         !- Name
    Fraction,                !- Schedule Type Limits Name
    0.04715848452508,        !- Hour 1
    0.04715848452508,        !- Hour 2
    0.0235458911419424,      !- Hour 3
    0.0235458911419424,      !- Hour 4
    0.04715848452508,        !- Hour 5
    0.0707043756670224,      !- Hour 6
    0.165088046958378,       !- Hour 7
    0.283017609391676,       !- Hour 8
    0.306563500533618,       !- Hour 9
    0.320771077908218,       !- Hour 10
    0.283017609391676,       !- Hour 11
    0.330176093916756,       !- Hour 12
    0.377334578441836,       !- Hour 13
    0.306563500533618,       !- Hour 14
    0.292422625400213,       !- Hour 15
    0.377334578441836,       !- Hour 16
    0.613193703308431,       !- Hour 17
    1,                       !- Hour 18
    0.778348452508004,       !- Hour 19
    0.400947171824973,       !- Hour 20
    0.235859124866596,       !- Hour 21
    0.165088046958378,       !- Hour 22
    0.103721985058698,       !- Hour 23
    0.0707043756670224;      !- Hour 24

Schedule:Day:Hourly,
    DishwasherWeekday,       !- Name
    Fraction,                !- Schedule Type Limits Name
    0.129162158913331,       !- Hour 1
    0.0573867051328282,      !- Hour 2
    0.0429979564851542,      !- Hour 3
    0.0286933525664145,      !- Hour 4
    0.0286933525664145,      !- Hour 5
    0.0860800576992427,      !- Hour 6
    0.172244260127419,       !- Hour 7
    0.258408462555596,       !- Hour 8
    0.488207717273711,       !- Hour 9
    0.545594422406539,       !- Hour 10
    0.473818968626037,       !- Hour 11
    0.402043514845535,       !- Hour 12
    0.344572664983772,       !- Hour 13
    0.387654766197861,       !- Hour 14
    0.315879312417358,       !- Hour 15
    0.301490563769684,       !- Hour 16
    0.315879312417358,       !- Hour 17
    0.416348118764274,       !- Hour 18
    0.732311575910566,       !- Hour 19
    0.93333333333333,        !- Hour 20
    0.761004928476981,       !- Hour 21
    0.559983171054213,       !- Hour 22
    0.373266017550187,       !- Hour 23
    0.258408462555596;       !- Hour 24

Schedule:Day:Hourly,
    DishwasherWeekend,       !- Name
    Fraction,                !- Schedule Type Limits Name
    0.13838802740714,        !- Hour 1
    0.0614857554994591,      !- Hour 2
    0.0460692390912369,      !- Hour 3
    0.0307428777497295,      !- Hour 4
    0.0307428777497295,      !- Hour 5
    0.0922286332491886,      !- Hour 6
    0.184547421565092,       !- Hour 7
    0.276866209880995,       !- Hour 8
    0.523079697078976,       !- Hour 9
    0.584565452578435,       !- Hour 10
    0.507663180670754,       !- Hour 11
    0.430760908763072,       !- Hour 12
    0.369184998196899,       !- Hour 13
    0.41534439235485,        !- Hour 14
    0.338442120447169,       !- Hour 15
    0.323025604038947,       !- Hour 16
    0.338442120447169,       !- Hour 17
    0.44608727010458,        !- Hour 18
    0.784619545618464,       !- Hour 19
    1,                       !- Hour 20
    0.815362423368193,       !- Hour 21
    0.599981968986657,       !- Hour 22
    0.399927875946628,       !- Hour 23
    0.276866209880995;       !- Hour 24

Schedule:Day:Hourly,
    DishwasherVacation,      !- Name
    Fraction,                !- Schedule Type Limits Name
    0,                       !- Hour 1
    0,                       !- Hour 2
    0,                       !- Hour 3
    0,                       !- Hour 4
    0,                       !- Hour 5
    0,                       !- Hour 6
    0,                       !- Hour 7
    0,                       !- Hour 8
    0,                       !- Hour 9
    0,                       !- Hour 10
    0,                       !- Hour 11
    0,                       !- Hour 12
    0,                       !- Hour 13
    0,                       !- Hour 14
    0,                       !- Hour 15
    0,                       !- Hour 16
    0,                       !- Hour 17
    0,                       !- Hour 18
    0,                       !- Hour 19
    0,                       !- Hour 20
    0,                       !- Hour 21
    0,                       !- Hour 22
    0,                       !- Hour 23
    0;                       !- Hour 24

Schedule:Day:Hourly,
    ClothesWasherWeekday,    !- Name
    Fraction,                !- Schedule Type Limits Name
    0.0887931470412736,      !- Hour 1
    0.0710155041111689,      !- Hour 2
    0.0354602182509584,      !- Hour 3
    0.0354602182509584,      !- Hour 4
    0.0710155041111689,      !- Hour 5
    0.106570789971378,       !- Hour 6
    0.213141579942758,       !- Hour 7
    0.461933513354977,       !- Hour 8
    0.69294780383709,        !- Hour 9
    0.817391304347826,       !- Hour 10
    0.799613661417722,       !- Hour 11
    0.710725446767196,       !- Hour 12
    0.639614875046775,       !- Hour 13
    0.568599370935607,       !- Hour 14
    0.497488799215186,       !- Hour 15
    0.461933513354977,       !- Hour 16
    0.479711156285081,       !- Hour 17
    0.461933513354977,       !- Hour 18
    0.461933513354977,       !- Hour 19
    0.461933513354977,       !- Hour 20
    0.461933513354977,       !- Hour 21
    0.444155870424871,       !- Hour 22
    0.302029794593282,       !- Hour 23
    0.159903718761693;       !- Hour 24

Schedule:Day:Hourly,
    ClothesWasherWeekend,    !- Name
    Fraction,                !- Schedule Type Limits Name
    0.108629913933473,       !- Hour 1
    0.086880669923238,       !- Hour 2
    0.0433821819027681,      !- Hour 3
    0.0433821819027681,      !- Hour 4
    0.086880669923238,       !- Hour 5
    0.130379157943708,       !- Hour 6
    0.260758315887416,       !- Hour 7
    0.565131425913003,       !- Hour 8
    0.847755291928355,       !- Hour 9
    1,                       !- Hour 10
    0.978250755989765,       !- Hour 11
    0.86950453593859,        !- Hour 12
    0.782507559897651,       !- Hour 13
    0.695626889974413,       !- Hour 14
    0.608629913933473,       !- Hour 15
    0.565131425913003,       !- Hour 16
    0.586880669923238,       !- Hour 17
    0.565131425913003,       !- Hour 18
    0.565131425913003,       !- Hour 19
    0.565131425913003,       !- Hour 20
    0.565131425913003,       !- Hour 21
    0.543382181902768,       !- Hour 22
    0.36950453593859,        !- Hour 23
    0.195626889974413;       !- Hour 24

Schedule:Day:Hourly,
    ClothesWasherVacation,   !- Name
    Fraction,                !- Schedule Type Limits Name
    0,                       !- Hour 1
    0,                       !- Hour 2
    0,                       !- Hour 3
    0,                       !- Hour 4
    0,                       !- Hour 5
    0,                       !- Hour 6
    0,                       !- Hour 7
    0,                       !- Hour 8
    0,                       !- Hour 9
    0,                       !- Hour 10
    0,                       !- Hour 11
    0,                       !- Hour 12
    0,                       !- Hour 13
    0,                       !- Hour 14
    0,                       !- Hour 15
    0,                       !- Hour 16
    0,                       !- Hour 17
    0,                       !- Hour 18
    0,                       !- Hour 19
    0,                       !- Hour 20
    0,                       !- Hour 21
    0,                       !- Hour 22
    0,                       !- Hour 23
    0;                       !- Hour 24

Schedule:Day:Hourly,
    ClothesDryerWeekday,     !- Name
    Fraction,                !- Schedule Type Limits Name
    0.0996818663838815,      !- Hour 1
    0.0598091198303289,      !- Hour 2
    0.0398727465535526,      !- Hour 3
    0.0199363732767763,      !- Hour 4
    0.0398727465535526,      !- Hour 5
    0.0598091198303289,      !- Hour 6
    0.15949098621421,        !- Hour 7
    0.31898197242842,        !- Hour 8
    0.486427370202556,       !- Hour 9
    0.685791102970318,       !- Hour 10
    0.785472969354199,       !- Hour 11
    0.817391304347826,       !- Hour 12
    0.745600222800647,       !- Hour 13
    0.677836691410393,       !- Hour 14
    0.610073160020138,       !- Hour 15
    0.578154825026511,       !- Hour 16
    0.558218451749735,       !- Hour 17
    0.546236490032885,       !- Hour 18
    0.518345705196183,       !- Hour 19
    0.510391293636256,       !- Hour 20
    0.526300116756109,       !- Hour 21
    0.546236490032885,       !- Hour 22
    0.438600212089077,       !- Hour 23
    0.239236479321316;       !- Hour 24

Schedule:Day:Hourly,
    ClothesDryerWeekend,     !- Name
    Fraction,                !- Schedule Type Limits Name
    0.121951219512195,       !- Hour 1
    0.0731707317073171,      !- Hour 2
    0.0487804878048781,      !- Hour 3
    0.024390243902439,       !- Hour 4
    0.0487804878048781,      !- Hour 5
    0.0731707317073171,      !- Hour 6
    0.195121951219512,       !- Hour 7
    0.390243902439024,       !- Hour 8
    0.59509731460951,        !- Hour 9
    0.8389997536339,         !- Hour 10
    0.960950973146095,       !- Hour 11
    1,                       !- Hour 12
    0.912170485341217,       !- Hour 13
    0.829268292682927,       !- Hour 14
    0.746366100024637,       !- Hour 15
    0.707317073170732,       !- Hour 16
    0.682926829268293,       !- Hour 17
    0.668268046316827,       !- Hour 18
    0.634146341463415,       !- Hour 19
    0.624414880512441,       !- Hour 20
    0.643877802414388,       !- Hour 21
    0.668268046316827,       !- Hour 22
    0.536585365853659,       !- Hour 23
    0.292682926829268;       !- Hour 24

Schedule:Day:Hourly,
    ClothesDryerVacation,    !- Name
    Fraction,                !- Schedule Type Limits Name
    0,                       !- Hour 1
    0,                       !- Hour 2
    0,                       !- Hour 3
    0,                       !- Hour 4
    0,                       !- Hour 5
    0,                       !- Hour 6
    0,                       !- Hour 7
    0,                       !- Hour 8
    0,                       !- Hour 9
    0,                       !- Hour 10
    0,                       !- Hour 11
    0,                       !- Hour 12
    0,                       !- Hour 13
    0,                       !- Hour 14
    0,                       !- Hour 15
    0,                       !- Hour 16
    0,                       !- Hour 17
    0,                       !- Hour 18
    0,                       !- Hour 19
    0,                       !- Hour 20
    0,                       !- Hour 21
    0,                       !- Hour 22
    0,                       !- Hour 23
    0;                       !- Hour 24

Schedule:Day:Hourly,
    SinksWeekday,            !- Name
    Fraction,                !- Schedule Type Limits Name
    0.178431090172197,       !- Hour 1
    0.0855612360359615,      !- Hour 2
    0.0641394243627467,      !- Hour 3
    0.0641394243627467,      !- Hour 4
    0.0855612360359615,      !- Hour 5
    0.228457320962002,       !- Hour 6
    0.535419281173493,       !- Hour 7
    0.785298413808711,       !- Hour 8
    0.828142037155143,       !- Hour 9
    0.778115806365338,       !- Hour 10
    0.685371962886004,       !- Hour 11
    0.628163124652828,       !- Hour 12
    0.613923920422985,       !- Hour 13
    0.571080297076553,       !- Hour 14
    0.521054066286749,       !- Hour 15
    0.542475877959965,       !- Hour 16
    0.606741312979612,       !- Hour 17
    0.82095942971177,        !- Hour 18
    0.942307692307692,       !- Hour 19
    0.870985660501574,       !- Hour 20
    0.713850371345691,       !- Hour 21
    0.606741312979612,       !- Hour 22
    0.499758265270435,       !- Hour 23
    0.342622976114552;       !- Hour 24

Schedule:Day:Hourly,
    SinksWeekend,            !- Name
    Fraction,                !- Schedule Type Limits Name
    0.18935544263172,        !- Hour 1
    0.0907996790585718,      !- Hour 2
    0.0680663278951591,      !- Hour 3
    0.0680663278951591,      !- Hour 4
    0.0907996790585718,      !- Hour 5
    0.242444503878042,       !- Hour 6
    0.568200053490238,       !- Hour 7
    0.833377908531693,       !- Hour 8
    0.878844610858518,       !- Hour 9
    0.825755549612196,       !- Hour 10
    0.727333511634127,       !- Hour 11
    0.666622091468307,       !- Hour 12
    0.651511099224392,       !- Hour 13
    0.606044396897566,       !- Hour 14
    0.552955335651244,       !- Hour 15
    0.575688686814656,       !- Hour 16
    0.643888740304894,       !- Hour 17
    0.871222251939021,       !- Hour 18
    1,                       !- Hour 19
    0.924311313185344,       !- Hour 20
    0.757555496121958,       !- Hour 21
    0.643888740304894,       !- Hour 22
    0.53035571008291,        !- Hour 23
    0.363599893019524;       !- Hour 24

Schedule:Day:Hourly,
    SinksVacation,           !- Name
    Fraction,                !- Schedule Type Limits Name
    0,                       !- Hour 1
    0,                       !- Hour 2
    0,                       !- Hour 3
    0,                       !- Hour 4
    0,                       !- Hour 5
    0,                       !- Hour 6
    0,                       !- Hour 7
    0,                       !- Hour 8
    0,                       !- Hour 9
    0,                       !- Hour 10
    0,                       !- Hour 11
    0,                       !- Hour 12
    0,                       !- Hour 13
    0,                       !- Hour 14
    0,                       !- Hour 15
    0,                       !- Hour 16
    0,                       !- Hour 17
    0,                       !- Hour 18
    0,                       !- Hour 19
    0,                       !- Hour 20
    0,                       !- Hour 21
    0,                       !- Hour 22
    0,                       !- Hour 23
    0;                       !- Hour 24

Schedule:Day:Hourly,
    ShowersWeekday,          !- Name
    Fraction,                !- Schedule Type Limits Name
    0.0847763225038272,      !- Hour 1
    0.0384986108748656,      !- Hour 2
    0.0269887169019672,      !- Hour 3
    0.0384986108748656,      !- Hour 4
    0.10795486760787,        !- Hour 5
    0.408799682485684,       !- Hour 6
    0.93333333333333,        !- Hour 7
    0.92563361115836,        !- Hour 8
    0.752112037194534,       !- Hour 9
    0.590100357203606,       !- Hour 10
    0.47436638884164,        !- Hour 11
    0.374111243408743,       !- Hour 12
    0.269966547598798,       !- Hour 13
    0.231388558144809,       !- Hour 14
    0.200510290865794,       !- Hour 15
    0.208210013040766,       !- Hour 16
    0.239088280319782,       !- Hour 17
    0.308544537052787,       !- Hour 18
    0.335533253954754,       !- Hour 19
    0.335533253954754,       !- Hour 20
    0.331643703577706,       !- Hour 21
    0.323943981402733,       !- Hour 22
    0.231388558144809,       !- Hour 23
    0.165821851788853;       !- Hour 24

Schedule:Day:Hourly,
    ShowersWeekend,          !- Name
    Fraction,                !- Schedule Type Limits Name
    0.0908317741112434,      !- Hour 1
    0.0412485116516414,      !- Hour 2
    0.0289164823949651,      !- Hour 3
    0.0412485116516414,      !- Hour 4
    0.115665929579861,       !- Hour 5
    0.437999659806089,       !- Hour 6
    1,                       !- Hour 7
    0.991750297669672,       !- Hour 8
    0.805834325565572,       !- Hour 9
    0.632250382718149,       !- Hour 10
    0.508249702330328,       !- Hour 11
    0.400833475080796,       !- Hour 12
    0.289249872427284,       !- Hour 13